REMARK  Name = pdb-minimised/IAC.pdb
REMARK                            x       y       z     vdW  Elec       q    Type
REMARK                         _______ _______ _______ _____ _____    ______ ____
ROOT
ATOM      1  C   LIG    1        5.746-110.951 -25.187  0.00  0.00    +0.081 A 
ATOM      2  C   LIG    1        5.743-110.618 -23.823  0.00  0.00    +0.019 A 
ATOM      3  C   LIG    1        6.977-110.538 -23.146  0.00  0.00    +0.002 A 
ATOM      4  C   LIG    1        8.203-110.836 -23.768  0.00  0.00    +0.000 A 
ATOM      5  C   LIG    1        8.202-111.196 -25.132  0.00  0.00    +0.001 A 
ATOM      6  C   LIG    1        6.954-111.250 -25.820  0.00  0.00    +0.016 A 
ATOM      7  C   LIG    1        6.608-111.548 -27.150  0.00  0.00    +0.010 A 
ATOM      8  C   LIG    1        5.256-111.427 -27.265  0.00  0.00    +0.095 A 
ATOM      9  N   LIG    1        4.747-111.062 -26.073  0.00  0.00    -0.244 NA
ENDROOT
BRANCH   7  10
ATOM     10  C   LIG    1        7.583-111.948 -28.298  0.00  0.00    +0.142 C 
BRANCH  10  11
ATOM     11  C   LIG    1        8.284-113.291 -27.994  0.00  0.00    +0.369 C 
ATOM     12  O   LIG    1        7.601-114.274 -27.638  0.00  0.00    -0.245 OA
ATOM     13  O   LIG    1        9.497-113.296 -28.143  0.00  0.00    -0.245 OA
ENDBRANCH  10  11
ENDBRANCH   7  10
TORSDOF 2
