REMARK  11 active torsions:
REMARK  status: ('A' for Active; 'I' for Inactive)
REMARK    1  A    between atoms: O4_5534  and  C24_5554 
REMARK    2  A    between atoms: O4_5534  and  C15_5545 
REMARK    3  A    between atoms: C7_5537  and  C17_5547 
REMARK    4  A    between atoms: C7_5537  and  C16_5546 
REMARK    5  A    between atoms: C10_5540  and  C21_5551 
REMARK    6  A    between atoms: C12_5542  and  C18_5548 
REMARK    7  A    between atoms: C13_5543  and  C21_5551 
REMARK    8  A    between atoms: C13_5543  and  C17_5547 
REMARK    9  A    between atoms: C16_5546  and  C18_5548 
REMARK   10  A    between atoms: C24_5554  and  C25_5555 
REMARK   11  A    between atoms: C25_5555  and  C27_5557 
ROOT
HETATM    1  C5  LVA A 429      79.054 124.995 108.378  1.00 19.62    -0.009 C 
HETATM    2  C6  LVA A 429      78.856 126.160 107.545  1.00 22.90    -0.025 C 
HETATM    3  C8  LVA A 429      79.875 124.940 109.429  1.00 20.40    -0.027 C 
HETATM    4  C9  LVA A 429      79.632 127.431 107.958  1.00 24.43     0.050 C 
HETATM    5  C11 LVA A 429      80.677 126.143 109.812  1.00 18.97     0.022 C 
HETATM    6  C12 LVA A 429      80.962 127.009 108.579  1.00 20.64     0.011 C 
HETATM    7  C14 LVA A 429      78.029 126.156 106.515  1.00 22.58    -0.031 C 
HETATM    8  C15 LVA A 429      79.964 128.209 106.624  1.00 29.33     0.129 C 
HETATM    9  C19 LVA A 429      78.612 128.587 106.018  1.00 28.96     0.035 C 
HETATM   10  C20 LVA A 429      79.918 126.866 110.908  1.00 18.11     0.005 C 
HETATM   11  C22 LVA A 429      77.823 127.339 105.609  1.00 27.45     0.024 C 
HETATM   12  C23 LVA A 429      78.144 126.939 104.114  1.00 27.49     0.005 C 
ENDROOT
BRANCH   6  13
HETATM   13  C18 LVA A 429      81.826 128.257 108.857  1.00 19.74     0.003 C 
BRANCH  13  14
HETATM   14  C16 LVA A 429      82.827 127.987 109.966  1.00 16.97     0.033 C 
BRANCH  14  15
HETATM   15  C7  LVA A 429      84.257 128.194 109.522  1.00 17.04     0.155 C 
HETATM   16  O8  LVA A 429      84.788 129.227 110.408  1.00 11.88    -0.223 OA
BRANCH  15  17
HETATM   17  C17 LVA A 429      85.118 126.936 109.609  1.00 16.96     0.066 C 
BRANCH  17  18
HETATM   18  C13 LVA A 429      85.938 126.854 108.348  1.00 18.19     0.165 C 
HETATM   19  O2  LVA A 429      86.507 128.170 108.114  1.00 20.16    -0.223 OA
BRANCH  18  20
HETATM   20  C21 LVA A 429      87.077 125.953 108.412  1.00 19.54     0.131 C 
BRANCH  20  21
HETATM   21  C10 LVA A 429      86.967 124.566 108.590  1.00 23.47     0.188 C 
HETATM   22  O3  LVA A 429      86.864 123.804 107.707  1.00 27.05    -0.647 OA
HETATM   23  O1  LVA A 429      86.909 124.095 109.838  1.00 29.33    -0.647 OA
ENDBRANCH  20  21
ENDBRANCH  18  20
ENDBRANCH  17  18
ENDBRANCH  15  17
ENDBRANCH  14  15
ENDBRANCH  13  14
ENDBRANCH   6  13
BRANCH   8  24
HETATM   24  O4  LVA A 429      80.841 127.668 105.566  1.00 36.01    -0.304 OA
BRANCH  24  25
HETATM   25  C24 LVA A 429      81.879 128.353 105.045  1.00 36.32     0.271 C 
HETATM   26  O26 LVA A 429      82.059 129.532 105.295  1.00 40.47    -0.264 OA
BRANCH  25  27
HETATM   27  C25 LVA A 429      82.754 127.503 104.174  1.00 33.59     0.086 C 
HETATM   28  C28 LVA A 429      82.665 126.087 104.739  1.00 35.43     0.010 C 
BRANCH  27  29
HETATM   29  C27 LVA A 429      82.364 127.528 102.717  1.00 32.10     0.010 C 
HETATM   30  C29 LVA A 429      83.114 126.580 101.841  1.00 28.07     0.001 C 
ENDBRANCH  27  29
ENDBRANCH  25  27
ENDBRANCH  24  25
ENDBRANCH   8  24
TORSDOF 11
