@<TRIPOS>MOLECULE
pdb/IAC.pdb
 21 22 0 0 0
SMALL
GASTEIGER

@<TRIPOS>ATOM
      1  C         -0.1357    0.9158   -0.1244 C.ar  901  IAC901      0.0467
      2  C1        -0.0129   -0.4611    0.0700 C.ar  901  IAC901      0.0032
      3  C2         1.2786   -1.0009    0.2351 C.ar  901  IAC901     -0.0523
      4  C3         2.3922   -0.1538    0.2069 C.ar  901  IAC901     -0.0611
      5  C4         2.2356    1.2176    0.0192 C.ar  901  IAC901     -0.0598
      6  C5         0.9666    1.7801   -0.1521 C.ar  901  IAC901     -0.0378
      7  C7        -1.3306   -1.0224    0.0503 C.ar  901  IAC901     -0.0169
      8  C8        -2.2048    0.0279   -0.1605 C.ar  901  IAC901      0.0063
      9  C17       -1.7072   -2.4565    0.2592 C.3   901  IAC901      0.0140
     10  C18       -1.2168   -3.3855   -0.8544 C.2   901  IAC901      0.0461
     11  N         -1.4760    1.1779   -0.2786 N.ar  901  IAC901     -0.3604
     12  O2        -1.9665   -3.4673   -1.8725 O.co2 901  IAC901     -0.5495
     13  O3        -0.1588   -4.0358   -0.5934 O.co2 901  IAC901     -0.5495
     14 H           1.4024   -2.0157    0.3761 H     901  IAC901      0.0624
     15 H           3.3381   -0.5488    0.3263 H     901  IAC901      0.0618
     16 H           3.0680    1.8274    0.0063 H     901  IAC901      0.0618
     17 H           0.8466    2.7952   -0.2938 H     901  IAC901      0.0638
     18 H          -3.2326   -0.0443   -0.2186 H     901  IAC901      0.0810
     19 H          -2.7740   -2.5225    0.3099 H     901  IAC901      0.0374
     20 H          -1.2371   -2.7764    1.1655 H     901  IAC901      0.0374
     21 H          -1.8575    2.0691   -0.4502 H     901  IAC901      0.1653
@<TRIPOS>BOND
     1     4     5   ar
     2     6     5   ar
     3     3     4   ar
     4     2     3   ar
     5     7     2   ar
     6     2     1   ar
     7     8     7   ar
     8     8    11   ar
     9    11     1   ar
    10     1     6   ar
    11     9     7    1
    12     9    10    1
    13    10    13   ar
    14    12    10   ar
    15     3    14    1
    16     4    15    1
    17     5    16    1
    18     6    17    1
    19     8    18    1
    20     9    19    1
    21     9    20    1
    22    11    21    1
