@<TRIPOS>MOLECULE
LVA
   68    69     1     0     0
SMALL
bcc


@<TRIPOS>ATOM
      1 C5         86.7680  127.5050  109.6870 ce      429 LVA     -0.123000
      2 C6         86.5300  128.6520  108.8400 ce      429 LVA     -0.079200
      3 C8         86.3560  126.2630  109.4230 c2      429 LVA     -0.162200
      4 C9         85.7820  128.3760  107.5160 c3      429 LVA     -0.012500
      5 C11        85.5820  125.9850  108.1740 c3      429 LVA     -0.031500
      6 C12        84.7970  127.2310  107.7440 c3      429 LVA     -0.049700
      7 C14        86.9630  129.8600  109.1540 c2      429 LVA     -0.144200
      8 C15        84.9310  129.6700  107.2020 c3      429 LVA      0.150100
      9 C19        85.9470  130.7970  107.0120 c3      429 LVA     -0.092400
     10 C20        86.5640  125.4880  107.1310 c3      429 LVA     -0.085100
     11 C22        86.7060  131.0800  108.3120 c3      429 LVA     -0.025500
     12 C23        85.9610  132.1810  109.1670 c3      429 LVA     -0.089100
     13 C18        83.9250  127.0370  106.4860 c3      429 LVA     -0.080400
     14 C16        82.9470  125.8920  106.6760 c3      429 LVA     -0.117400
     15 C7         81.5060  126.3310  106.5500 c3      429 LVA      0.139100
     16 O8         81.1440  126.0680  105.1590 oh      429 LVA     -0.589800
     17 C17        80.5520  125.5930  107.4870 c3      429 LVA     -0.148400
     18 C13        80.3920  126.4300  108.7290 c3      429 LVA      0.137100
     19 O2         78.9900  126.3780  109.1090 oh      429 LVA     -0.608800
     20 C21        81.1190  125.9510  109.8930 c3      429 LVA     -0.217400
     21 C10        82.2930  126.5450  110.3800 c       429 LVA      0.629100
     22 O3         83.1310  125.9570  110.9470 oh      429 LVA     -0.582100
     23 O1         82.4290  127.8670  110.2490 o       429 LVA     -0.497000
     24 O4         83.8290  130.1440  108.0630 os      429 LVA     -0.430900
     25 C24        82.7350  130.7710  107.5830 c       429 LVA      0.632100
     26 O26        82.6820  131.9850  107.4890 o       429 LVA     -0.549000
     27 C25        81.6520  129.8170  107.1800 c3      429 LVA     -0.108700
     28 C28        80.4990  130.0490  108.1550 c3      429 LVA     -0.093100
     29 C27        81.1940  129.9890  105.7530 c3      429 LVA     -0.075400
     30 C29        82.2470  129.7740  104.7170 c3      429 LVA     -0.107100
     31 H          87.2960  127.6580  110.5610 ha      429 LVA      0.126000
     32 H1         86.5710  125.4960  110.0790 ha      429 LVA      0.123000
     33 H2         86.4650  128.1340  106.7280 hc      429 LVA      0.063700
     34 H3         84.8420  125.2260  108.3240 hc      429 LVA      0.047700
     35 H4         84.1120  127.4490  108.5370 hc      429 LVA      0.069700
     36 H5         87.5070  129.9730  110.0240 ha      429 LVA      0.123000
     37 H6         84.3460  129.3640  106.3600 h1      429 LVA      0.073700
     38 H7         85.4320  131.6840  106.7080 hc      429 LVA      0.056200
     39 H8         86.6520  130.4970  106.2650 hc      429 LVA      0.056200
     40 H9         87.3140  126.2320  106.9640 hc      429 LVA      0.035033
     41 H10        86.0450  125.2940  106.2160 hc      429 LVA      0.035033
     42 H11        87.0260  124.5870  107.4770 hc      429 LVA      0.035033
     43 H12        87.6660  131.4410  108.0080 hc      429 LVA      0.051700
     44 H13        85.0020  131.8120  109.4660 hc      429 LVA      0.039033
     45 H14        85.8350  133.0650  108.5780 hc      429 LVA      0.039033
     46 H15        86.5420  132.4110  110.0360 hc      429 LVA      0.039033
     47 H16        83.3780  127.9370  106.2970 hc      429 LVA      0.053700
     48 H17        84.5640  126.8070  105.6590 hc      429 LVA      0.053700
     49 H18        83.0940  125.4740  107.6500 hc      429 LVA      0.048700
     50 H19        83.1350  125.1740  105.9060 hc      429 LVA      0.048700
     51 H20        81.4190  127.3610  106.8260 h1      429 LVA      0.086700
     52 H21        81.2440  125.1210  104.9720 ho      429 LVA      0.397000
     53 H22        80.9590  124.6370  107.7420 hc      429 LVA      0.061200
     54 H23        79.6050  125.4400  107.0130 hc      429 LVA      0.061200
     55 H24        80.7690  127.4000  108.4790 h1      429 LVA      0.095700
     56 H25        78.7450  125.4630  109.3160 ho      429 LVA      0.408000
     57 H26        81.3750  124.9350  109.6780 hc      429 LVA      0.086200
     58 H27        80.4300  126.1870  110.6770 hc      429 LVA      0.086200
     59 H28        83.0620  125.0290  111.0540 ho      429 LVA      0.447000
     60 H29        82.0250  128.8150  107.2230 hc      429 LVA      0.086700
     61 H30        80.1620  131.0610  108.0750 hc      429 LVA      0.048033
     62 H31        80.8340  129.8630  109.1540 hc      429 LVA      0.048033
     63 H32        79.6930  129.3850  107.9190 hc      429 LVA      0.048033
     64 H33        80.4040  129.2900  105.5720 hc      429 LVA      0.058200
     65 H34        80.8900  131.0110  105.6600 hc      429 LVA      0.058200
     66 H35        82.5910  128.7620  104.7630 hc      429 LVA      0.039033
     67 H36        83.0660  130.4380  104.8980 hc      429 LVA      0.039033
     68 H37        81.8380  129.9680  103.7470 hc      429 LVA      0.039033
@<TRIPOS>BOND
     1    1    2 1   
     2    1    3 2   
     3    1   31 1   
     4    2    4 1   
     5    2    7 2   
     6    3    5 1   
     7    3   32 1   
     8    4    6 1   
     9    4    8 1   
    10    4   33 1   
    11    5    6 1   
    12    5   10 1   
    13    5   34 1   
    14    6   13 1   
    15    6   35 1   
    16    7   11 1   
    17    7   36 1   
    18    8    9 1   
    19    8   24 1   
    20    8   37 1   
    21    9   11 1   
    22    9   38 1   
    23    9   39 1   
    24   10   40 1   
    25   10   41 1   
    26   10   42 1   
    27   11   12 1   
    28   11   43 1   
    29   12   44 1   
    30   12   45 1   
    31   12   46 1   
    32   13   14 1   
    33   13   47 1   
    34   13   48 1   
    35   14   15 1   
    36   14   49 1   
    37   14   50 1   
    38   15   16 1   
    39   15   17 1   
    40   15   51 1   
    41   16   52 1   
    42   17   18 1   
    43   17   53 1   
    44   17   54 1   
    45   18   19 1   
    46   18   20 1   
    47   18   55 1   
    48   19   56 1   
    49   20   21 1   
    50   20   57 1   
    51   20   58 1   
    52   21   22 1   
    53   21   23 2   
    54   22   59 1   
    55   24   25 1   
    56   25   26 2   
    57   25   27 1   
    58   27   28 1   
    59   27   29 1   
    60   27   60 1   
    61   28   61 1   
    62   28   62 1   
    63   28   63 1   
    64   29   30 1   
    65   29   64 1   
    66   29   65 1   
    67   30   66 1   
    68   30   67 1   
    69   30   68 1   
@<TRIPOS>SUBSTRUCTURE
     1 LVA         1 TEMP              0 ****  ****    0 ROOT
