MODEL 1
REMARK VINA RESULT:      -8.1      0.000      0.000
REMARK  Name = pdb-minimised/1.pdb
REMARK                            x       y       z     vdW  Elec       q    Type
REMARK                         _______ _______ _______ _____ _____    ______ ____
ROOT
ATOM      1  C   LIG    1        7.970-110.779 -23.602  0.00  0.00    +0.001 A 
ATOM      2  C   LIG    1        8.083-111.117 -24.956  0.00  0.00    +0.010 A 
ATOM      3  C   LIG    1        6.935-111.120 -25.773  0.00  0.00    +0.003 A 
ATOM      4  C   LIG    1        6.699-111.405 -27.157  0.00  0.00    -0.016 A 
ATOM      5  C   LIG    1        5.344-111.240 -27.369  0.00  0.00    +0.087 A 
ATOM      6  N   LIG    1        4.761-110.885 -26.185  0.00  0.00    -0.360 N 
ATOM      7  H   LIG    1        3.799-110.722 -26.058  0.00  0.00    +0.165 HD
ATOM      8  C   LIG    1        5.709-110.787 -25.194  0.00  0.00    +0.047 A 
ATOM      9  C   LIG    1        5.576-110.443 -23.843  0.00  0.00    +0.026 A 
ATOM     10  C   LIG    1        6.733-110.443 -23.056  0.00  0.00    +0.002 A 
ENDROOT
BRANCH   4  11
ATOM     11  C   LIG    1        7.718-111.771 -28.192  0.00  0.00    +0.100 C 
BRANCH  11  12
ATOM     12  C   LIG    1        8.451-113.081 -27.891  0.00  0.00    +0.092 C 
ATOM     13  O   LIG    1        9.701-112.975 -27.705  0.00  0.00    -0.309 OA
ATOM     14  O   LIG    1        7.745-114.132 -27.949  0.00  0.00    -0.847 OA
ENDBRANCH  11  12
ENDBRANCH   4  11
TORSDOF 2
ENDMDL
MODEL 2
REMARK VINA RESULT:      -6.7      2.618      4.406
REMARK  Name = pdb-minimised/1.pdb
REMARK                            x       y       z     vdW  Elec       q    Type
REMARK                         _______ _______ _______ _____ _____    ______ ____
ROOT
ATOM      1  C   LIG    1        9.750-112.539 -27.663  0.00  0.00    +0.001 A 
ATOM      2  C   LIG    1        9.269-112.214 -26.389  0.00  0.00    +0.010 A 
ATOM      3  C   LIG    1        7.932-111.796 -26.234  0.00  0.00    +0.003 A 
ATOM      4  C   LIG    1        7.137-111.402 -25.109  0.00  0.00    -0.016 A 
ATOM      5  C   LIG    1        5.883-111.093 -25.601  0.00  0.00    +0.087 A 
ATOM      6  N   LIG    1        5.894-111.270 -26.956  0.00  0.00    -0.360 N 
ATOM      7  H   LIG    1        5.129-111.103 -27.551  0.00  0.00    +0.165 HD
ATOM      8  C   LIG    1        7.126-111.715 -27.371  0.00  0.00    +0.047 A 
ATOM      9  C   LIG    1        7.589-112.039 -28.653  0.00  0.00    +0.026 A 
ATOM     10  C   LIG    1        8.919-112.455 -28.778  0.00  0.00    +0.002 A 
ENDROOT
BRANCH   4  11
ATOM     11  C   LIG    1        7.556-111.367 -23.671  0.00  0.00    +0.100 C 
BRANCH  11  12
ATOM     12  C   LIG    1        8.005-109.982 -23.200  0.00  0.00    +0.092 C 
ATOM     13  O   LIG    1        9.100-109.569 -23.689  0.00  0.00    -0.309 OA
ATOM     14  O   LIG    1        7.281-109.442 -22.311  0.00  0.00    -0.847 OA
ENDBRANCH  11  12
ENDBRANCH   4  11
TORSDOF 2
ENDMDL
MODEL 3
REMARK VINA RESULT:      -6.6      1.978      2.822
REMARK  Name = pdb-minimised/1.pdb
REMARK                            x       y       z     vdW  Elec       q    Type
REMARK                         _______ _______ _______ _____ _____    ______ ____
ROOT
ATOM      1  C   LIG    1        5.346-110.641 -24.576  0.00  0.00    +0.001 A 
ATOM      2  C   LIG    1        5.885-111.392 -25.627  0.00  0.00    +0.010 A 
ATOM      3  C   LIG    1        7.237-111.787 -25.581  0.00  0.00    +0.003 A 
ATOM      4  C   LIG    1        8.084-112.539 -26.457  0.00  0.00    -0.016 A 
ATOM      5  C   LIG    1        9.329-112.585 -25.859  0.00  0.00    +0.087 A 
ATOM      6  N   LIG    1        9.270-111.891 -24.684  0.00  0.00    -0.360 N 
ATOM      7  H   LIG    1       10.029-111.757 -24.071  0.00  0.00    +0.165 HD
ATOM      8  C   LIG    1        8.001-111.406 -24.477  0.00  0.00    +0.047 A 
ATOM      9  C   LIG    1        7.479-110.656 -23.414  0.00  0.00    +0.026 A 
ATOM     10  C   LIG    1        6.133-110.282 -23.483  0.00  0.00    +0.002 A 
ENDROOT
BRANCH   4  11
ATOM     11  C   LIG    1        7.700-113.190 -27.750  0.00  0.00    +0.100 C 
BRANCH  11  12
ATOM     12  C   LIG    1        7.065-112.225 -28.754  0.00  0.00    +0.092 C 
ATOM     13  O   LIG    1        5.883-112.511 -29.112  0.00  0.00    -0.309 OA
ATOM     14  O   LIG    1        7.821-111.302 -29.182  0.00  0.00    -0.847 OA
ENDBRANCH  11  12
ENDBRANCH   4  11
TORSDOF 2
ENDMDL
MODEL 4
REMARK VINA RESULT:      -6.6      3.012      4.838
REMARK  Name = pdb-minimised/1.pdb
REMARK                            x       y       z     vdW  Elec       q    Type
REMARK                         _______ _______ _______ _____ _____    ______ ____
ROOT
ATOM      1  C   LIG    1        6.309-111.546 -28.366  0.00  0.00    +0.001 A 
ATOM      2  C   LIG    1        6.553-111.000 -27.100  0.00  0.00    +0.010 A 
ATOM      3  C   LIG    1        7.547-111.565 -26.277  0.00  0.00    +0.003 A 
ATOM      4  C   LIG    1        8.043-111.264 -24.967  0.00  0.00    -0.016 A 
ATOM      5  C   LIG    1        9.032-112.191 -24.697  0.00  0.00    +0.087 A 
ATOM      6  N   LIG    1        9.141-113.031 -25.768  0.00  0.00    -0.360 N 
ATOM      7  H   LIG    1        9.763-113.792 -25.825  0.00  0.00    +0.165 HD
ATOM      8  C   LIG    1        8.260-112.665 -26.757  0.00  0.00    +0.047 A 
ATOM      9  C   LIG    1        8.033-113.223 -28.022  0.00  0.00    +0.026 A 
ATOM     10  C   LIG    1        7.043-112.640 -28.821  0.00  0.00    +0.002 A 
ENDROOT
BRANCH   4  11
ATOM     11  C   LIG    1        7.612-110.143 -24.071  0.00  0.00    +0.100 C 
BRANCH  11  12
ATOM     12  C   LIG    1        6.449-110.512 -23.147  0.00  0.00    +0.092 C 
ATOM     13  O   LIG    1        6.775-111.080 -22.061  0.00  0.00    -0.309 OA
ATOM     14  O   LIG    1        5.290-110.291 -23.608  0.00  0.00    -0.847 OA
ENDBRANCH  11  12
ENDBRANCH   4  11
TORSDOF 2
ENDMDL
MODEL 5
REMARK VINA RESULT:      -6.4      1.719      2.551
REMARK  Name = pdb-minimised/1.pdb
REMARK                            x       y       z     vdW  Elec       q    Type
REMARK                         _______ _______ _______ _____ _____    ______ ____
ROOT
ATOM      1  C   LIG    1        5.212-110.288 -24.831  0.00  0.00    +0.001 A 
ATOM      2  C   LIG    1        6.007-110.718 -25.900  0.00  0.00    +0.010 A 
ATOM      3  C   LIG    1        7.276-111.276 -25.646  0.00  0.00    +0.003 A 
ATOM      4  C   LIG    1        8.315-111.803 -26.479  0.00  0.00    -0.016 A 
ATOM      5  C   LIG    1        9.334-112.201 -25.634  0.00  0.00    +0.087 A 
ATOM      6  N   LIG    1        8.962-111.927 -24.348  0.00  0.00    -0.360 N 
ATOM      7  H   LIG    1        9.516-112.099 -23.554  0.00  0.00    +0.165 HD
ATOM      8  C   LIG    1        7.702-111.377 -24.321  0.00  0.00    +0.047 A 
ATOM      9  C   LIG    1        6.921-110.955 -23.237  0.00  0.00    +0.026 A 
ATOM     10  C   LIG    1        5.663-110.410 -23.518  0.00  0.00    +0.002 A 
ENDROOT
BRANCH   4  11
ATOM     11  C   LIG    1        8.298-111.942 -27.970  0.00  0.00    +0.100 C 
BRANCH  11  12
ATOM     12  C   LIG    1        7.329-113.014 -28.473  0.00  0.00    +0.092 C 
ATOM     13  O   LIG    1        6.297-112.580 -29.068  0.00  0.00    -0.309 OA
ATOM     14  O   LIG    1        7.619-114.208 -28.161  0.00  0.00    -0.847 OA
ENDBRANCH  11  12
ENDBRANCH   4  11
TORSDOF 2
ENDMDL
MODEL 6
REMARK VINA RESULT:      -6.4      1.860      2.666
REMARK  Name = pdb-minimised/1.pdb
REMARK                            x       y       z     vdW  Elec       q    Type
REMARK                         _______ _______ _______ _____ _____    ______ ____
ROOT
ATOM      1  C   LIG    1        5.289-110.522 -24.798  0.00  0.00    +0.001 A 
ATOM      2  C   LIG    1        5.952-111.268 -25.779  0.00  0.00    +0.010 A 
ATOM      3  C   LIG    1        7.247-111.762 -25.524  0.00  0.00    +0.003 A 
ATOM      4  C   LIG    1        8.182-112.539 -26.281  0.00  0.00    -0.016 A 
ATOM      5  C   LIG    1        9.299-112.700 -25.484  0.00  0.00    +0.087 A 
ATOM      6  N   LIG    1        9.082-112.051 -24.301  0.00  0.00    -0.360 N 
ATOM      7  H   LIG    1        9.730-111.998 -23.562  0.00  0.00    +0.165 HD
ATOM      8  C   LIG    1        7.831-111.483 -24.288  0.00  0.00    +0.047 A 
ATOM      9  C   LIG    1        7.183-110.740 -23.292  0.00  0.00    +0.026 A 
ATOM     10  C   LIG    1        5.896-110.266 -23.570  0.00  0.00    +0.002 A 
ENDROOT
BRANCH   4  11
ATOM     11  C   LIG    1        7.986-113.108 -27.653  0.00  0.00    +0.100 C 
BRANCH  11  12
ATOM     12  C   LIG    1        8.706-112.320 -28.750  0.00  0.00    +0.092 C 
ATOM     13  O   LIG    1        8.034-111.384 -29.278  0.00  0.00    -0.309 OA
ATOM     14  O   LIG    1        9.858-112.745 -29.067  0.00  0.00    -0.847 OA
ENDBRANCH  11  12
ENDBRANCH   4  11
TORSDOF 2
ENDMDL
MODEL 7
REMARK VINA RESULT:      -6.3      1.663      2.721
REMARK  Name = pdb-minimised/1.pdb
REMARK                            x       y       z     vdW  Elec       q    Type
REMARK                         _______ _______ _______ _____ _____    ______ ____
ROOT
ATOM      1  C   LIG    1        5.089-110.531 -26.500  0.00  0.00    +0.001 A 
ATOM      2  C   LIG    1        6.301-111.198 -26.721  0.00  0.00    +0.010 A 
ATOM      3  C   LIG    1        7.201-111.382 -25.653  0.00  0.00    +0.003 A 
ATOM      4  C   LIG    1        8.486-112.002 -25.531  0.00  0.00    -0.016 A 
ATOM      5  C   LIG    1        8.872-111.855 -24.212  0.00  0.00    +0.087 A 
ATOM      6  N   LIG    1        7.892-111.171 -23.549  0.00  0.00    -0.360 N 
ATOM      7  H   LIG    1        7.927-110.920 -22.598  0.00  0.00    +0.165 HD
ATOM      8  C   LIG    1        6.850-110.883 -24.397  0.00  0.00    +0.047 A 
ATOM      9  C   LIG    1        5.642-110.216 -24.155  0.00  0.00    +0.026 A 
ATOM     10  C   LIG    1        4.765-110.051 -25.233  0.00  0.00    +0.002 A 
ENDROOT
BRANCH   4  11
ATOM     11  C   LIG    1        9.256-112.711 -26.603  0.00  0.00    +0.100 C 
BRANCH  11  12
ATOM     12  C   LIG    1        8.615-114.030 -27.043  0.00  0.00    +0.092 C 
ATOM     13  O   LIG    1        7.940-113.976 -28.114  0.00  0.00    -0.309 OA
ATOM     14  O   LIG    1        8.758-115.003 -26.244  0.00  0.00    -0.847 OA
ENDBRANCH  11  12
ENDBRANCH   4  11
TORSDOF 2
ENDMDL
MODEL 8
REMARK VINA RESULT:      -6.3      1.447      1.736
REMARK  Name = pdb-minimised/1.pdb
REMARK                            x       y       z     vdW  Elec       q    Type
REMARK                         _______ _______ _______ _____ _____    ______ ____
ROOT
ATOM      1  C   LIG    1        7.483-110.648 -23.258  0.00  0.00    +0.001 A 
ATOM      2  C   LIG    1        8.283-111.278 -24.218  0.00  0.00    +0.010 A 
ATOM      3  C   LIG    1        7.750-111.570 -25.489  0.00  0.00    +0.003 A 
ATOM      4  C   LIG    1        8.274-112.186 -26.670  0.00  0.00    -0.016 A 
ATOM      5  C   LIG    1        7.251-112.193 -27.600  0.00  0.00    +0.087 A 
ATOM      6  N   LIG    1        6.146-111.627 -27.030  0.00  0.00    -0.360 N 
ATOM      7  H   LIG    1        5.275-111.524 -27.475  0.00  0.00    +0.165 HD
ATOM      8  C   LIG    1        6.423-111.220 -25.747  0.00  0.00    +0.047 A 
ATOM      9  C   LIG    1        5.607-110.587 -24.800  0.00  0.00    +0.026 A 
ATOM     10  C   LIG    1        6.164-110.304 -23.548  0.00  0.00    +0.002 A 
ENDROOT
BRANCH   4  11
ATOM     11  C   LIG    1        9.668-112.691 -26.886  0.00  0.00    +0.100 C 
BRANCH  11  12
ATOM     12  C   LIG    1       10.200-112.430 -28.297  0.00  0.00    +0.092 C 
ATOM     13  O   LIG    1       11.342-112.921 -28.548  0.00  0.00    -0.309 OA
ATOM     14  O   LIG    1        9.483-111.682 -29.026  0.00  0.00    -0.847 OA
ENDBRANCH  11  12
ENDBRANCH   4  11
TORSDOF 2
ENDMDL
MODEL 9
REMARK VINA RESULT:      -6.3      2.669      4.192
REMARK  Name = pdb-minimised/1.pdb
REMARK                            x       y       z     vdW  Elec       q    Type
REMARK                         _______ _______ _______ _____ _____    ______ ____
ROOT
ATOM      1  C   LIG    1        9.365-112.730 -25.909  0.00  0.00    +0.001 A 
ATOM      2  C   LIG    1        8.334-112.139 -25.169  0.00  0.00    +0.010 A 
ATOM      3  C   LIG    1        7.175-111.683 -25.827  0.00  0.00    +0.003 A 
ATOM      4  C   LIG    1        5.966-111.052 -25.389  0.00  0.00    -0.016 A 
ATOM      5  C   LIG    1        5.199-110.839 -26.520  0.00  0.00    +0.087 A 
ATOM      6  N   LIG    1        5.893-111.298 -27.604  0.00  0.00    -0.360 N 
ATOM      7  H   LIG    1        5.577-111.250 -28.534  0.00  0.00    +0.165 HD
ATOM      8  C   LIG    1        7.096-111.834 -27.212  0.00  0.00    +0.047 A 
ATOM      9  C   LIG    1        8.115-112.425 -27.970  0.00  0.00    +0.026 A 
ATOM     10  C   LIG    1        9.253-112.874 -27.291  0.00  0.00    +0.002 A 
ENDROOT
BRANCH   4  11
ATOM     11  C   LIG    1        5.575-110.720 -23.981  0.00  0.00    +0.100 C 
BRANCH  11  12
ATOM     12  C   LIG    1        6.769-110.416 -23.073  0.00  0.00    +0.092 C 
ATOM     13  O   LIG    1        6.892-111.175 -22.064  0.00  0.00    -0.309 OA
ATOM     14  O   LIG    1        7.446-109.390 -23.379  0.00  0.00    -0.847 OA
ENDBRANCH  11  12
ENDBRANCH   4  11
TORSDOF 2
ENDMDL
