@<TRIPOS>MOLECULE
pdb/LVA.pdb
 67 68 0 0 0
SMALL
GASTEIGER

@<TRIPOS>ATOM
      1  O1         2.9237   -2.6683   -3.2129 O.co2 429  LVA429     -0.5497
      2  O2         0.5872   -2.1340   -4.2944 O.3   429  LVA429     -0.3913
      3  O3         3.0146   -4.1693   -1.4869 O.co2 429  LVA429     -0.5497
      4  O8        -1.6427   -0.0593   -2.9458 O.3   429  LVA429     -0.3917
      5  O4        -4.5945   -5.3230   -2.5393 O.3   429  LVA429     -0.4605
      6  C5        -8.4011   -3.1562   -4.9156 C.2   429  LVA429     -0.0621
      7  C6        -7.6829   -4.3463   -4.5354 C.2   429  LVA429     -0.0444
      8  C7        -2.0514   -1.3172   -3.4917 C.3   429  LVA429      0.0576
      9  C8        -7.8920   -1.9304   -4.7844 C.2   429  LVA429     -0.0806
     10  C9        -6.1880   -4.2133   -4.2572 C.3   429  LVA429      0.0243
     11  C10        2.4346   -3.4593   -2.3530 C.2   429  LVA429      0.0442
     12  C11       -6.5586   -1.6104   -4.1696 C.3   429  LVA429     -0.0219
     13  C12       -5.7327   -2.8372   -3.6567 C.3   429  LVA429     -0.0248
     14  C13        0.2451   -2.3383   -2.9211 C.3   429  LVA429      0.0626
     15  C14       -8.3205   -5.5305   -4.5686 C.2   429  LVA429     -0.0775
     16  C15       -5.5730   -5.5048   -3.5930 C.3   429  LVA429      0.1106
     17  C16       -3.5714   -1.4181   -3.2795 C.3   429  LVA429     -0.0265
     18  C17       -1.2797   -2.4584   -2.8143 C.3   429  LVA429     -0.0004
     19  C18       -4.2165   -2.6221   -3.9716 C.3   429  LVA429     -0.0467
     20  C19       -6.5686   -6.6119   -3.2029 C.3   429  LVA429     -0.0090
     21  C20       -6.8288   -0.6143   -3.0279 C.3   429  LVA429     -0.0587
     22  C21        0.9156   -3.6017   -2.3904 C.3   429  LVA429      0.0130
     23  C22       -7.6675   -6.8371   -4.2343 C.3   429  LVA429     -0.0218
     24  C23       -7.1636   -7.5384   -5.4941 C.3   429  LVA429     -0.0588
     25  C24       -4.9659   -5.0132   -1.2684 C.2   429  LVA429      0.3102
     26  C25       -3.7805   -5.1667   -0.3301 C.3   429  LVA429      0.0534
     27  O26       -6.0921   -4.7074   -0.9077 O.2   429  LVA429     -0.2505
     28  C27       -3.4910   -3.8300    0.3599 C.3   429  LVA429     -0.0432
     29  C28       -4.0880   -6.2950    0.6530 C.3   429  LVA429     -0.0523
     30  C29       -2.2396   -3.8651    1.2255 C.3   429  LVA429     -0.0645
     31 H           1.5503   -2.0558   -4.3795 H     429  LVA429      0.2098
     32 H          -0.6851    0.0464   -3.0588 H     429  LVA429      0.2098
     33 H          -9.3509   -3.2567   -5.3064 H     429  LVA429      0.0617
     34 H          -1.8340   -1.3935   -4.5366 H     429  LVA429      0.0594
     35 H          -8.4577   -1.1403   -5.1320 H     429  LVA429      0.0575
     36 H          -5.7244   -4.1683   -5.2205 H     429  LVA429      0.0388
     37 H          -5.9355   -1.2037   -4.9385 H     429  LVA429      0.0343
     38 H          -5.9083   -2.8883   -2.6024 H     429  LVA429      0.0313
     39 H           0.5869   -1.5119   -2.3336 H     429  LVA429      0.0598
     40 H          -9.3163   -5.5396   -4.8397 H     429  LVA429      0.0578
     41 H          -5.0225   -5.8474   -4.4441 H     429  LVA429      0.0740
     42 H          -4.0246   -0.5273   -3.6615 H     429  LVA429      0.0290
     43 H          -3.7305   -1.5422   -2.2287 H     429  LVA429      0.0290
     44 H          -1.5431   -2.4720   -1.7773 H     429  LVA429      0.0315
     45 H          -1.5529   -3.3585   -3.3241 H     429  LVA429      0.0315
     46 H          -3.6874   -3.5012   -3.6681 H     429  LVA429      0.0269
     47 H          -4.1560   -2.4283   -5.0222 H     429  LVA429      0.0269
     48 H          -6.0266   -7.5264   -3.0813 H     429  LVA429      0.0307
     49 H          -7.0473   -6.2982   -2.2988 H     429  LVA429      0.0307
     50 H          -7.4544   -1.0758   -2.2926 H     429  LVA429      0.0235
     51 H          -7.3186    0.2527   -3.4194 H     429  LVA429      0.0235
     52 H          -5.9014   -0.3274   -2.5779 H     429  LVA429      0.0235
     53 H           0.5604   -3.7930   -1.3993 H     429  LVA429      0.0350
     54 H           0.6717   -4.4106   -3.0469 H     429  LVA429      0.0350
     55 H          -8.3897   -7.4954   -3.7986 H     429  LVA429      0.0342
     56 H          -6.4331   -6.9233   -5.9767 H     429  LVA429      0.0235
     57 H          -7.9837   -7.7075   -6.1603 H     429  LVA429      0.0235
     58 H          -6.7212   -8.4755   -5.2279 H     429  LVA429      0.0235
     59 H          -2.8918   -5.4304   -0.8645 H     429  LVA429      0.0410
     60 H          -4.3266   -3.5781    0.9790 H     429  LVA429      0.0270
     61 H          -3.3284   -3.1026   -0.4078 H     429  LVA429      0.0270
     62 H          -4.9747   -6.0573    1.2027 H     429  LVA429      0.0238
     63 H          -3.2683   -6.4106    1.3309 H     429  LVA429      0.0238
     64 H          -4.2364   -7.2072    0.1138 H     429  LVA429      0.0238
     65 H          -2.3666   -4.5846    2.0071 H     429  LVA429      0.0230
     66 H          -2.0749   -2.8985    1.6537 H     429  LVA429      0.0230
     67 H          -1.3974   -4.1369    0.6240 H     429  LVA429      0.0230
@<TRIPOS>BOND
     1    23    20    1
     2    23    15    1
     3    20    16    1
     4    16    10    1
     5    10    13    1
     6     7    10    1
     7    13    12    1
     8     9    12    1
     9     6     9    2
    10     7     6    1
    11    15     7    2
    12    11     1   ar
    13    22    11    1
    14    14    22    1
    15    14    18    1
    16     8    18    1
    17     8     4    1
    18     8    17    1
    19    19    17    1
    20    19    13    1
    21    12    21    1
    22     5    16    1
    23    25     5    1
    24    25    27    2
    25    26    25    1
    26    26    29    1
    27    28    26    1
    28    30    28    1
    29    24    23    1
    30     2    14    1
    31     3    11   ar
    32     2    31    1
    33     4    32    1
    34     6    33    1
    35     8    34    1
    36     9    35    1
    37    10    36    1
    38    12    37    1
    39    13    38    1
    40    14    39    1
    41    15    40    1
    42    16    41    1
    43    17    42    1
    44    17    43    1
    45    18    44    1
    46    18    45    1
    47    19    46    1
    48    19    47    1
    49    20    48    1
    50    20    49    1
    51    21    50    1
    52    21    51    1
    53    21    52    1
    54    22    53    1
    55    22    54    1
    56    23    55    1
    57    24    56    1
    58    24    57    1
    59    24    58    1
    60    26    59    1
    61    28    60    1
    62    28    61    1
    63    29    62    1
    64    29    63    1
    65    29    64    1
    66    30    65    1
    67    30    66    1
    68    30    67    1
