MODEL 1
REMARK VINA RESULT:      -6.7      0.000      0.000
REMARK  11 active torsions:
REMARK  status: ('A' for Active; 'I' for Inactive)
REMARK    1  A    between atoms: O4_5534  and  C24_5554 
REMARK    2  A    between atoms: O4_5534  and  C15_5545 
REMARK    3  A    between atoms: C7_5537  and  C17_5547 
REMARK    4  A    between atoms: C7_5537  and  C16_5546 
REMARK    5  A    between atoms: C10_5540  and  C21_5551 
REMARK    6  A    between atoms: C12_5542  and  C18_5548 
REMARK    7  A    between atoms: C13_5543  and  C21_5551 
REMARK    8  A    between atoms: C13_5543  and  C17_5547 
REMARK    9  A    between atoms: C16_5546  and  C18_5548 
REMARK   10  A    between atoms: C24_5554  and  C25_5555 
REMARK   11  A    between atoms: C25_5555  and  C27_5557 
ROOT
HETATM    1  C5  LVA A 429      86.768 127.505 109.687  1.00 19.62    -0.009 C 
HETATM    2  C6  LVA A 429      86.530 128.652 108.840  1.00 22.90    -0.025 C 
HETATM    3  C8  LVA A 429      86.356 126.263 109.423  1.00 20.40    -0.027 C 
HETATM    4  C9  LVA A 429      85.782 128.376 107.516  1.00 24.43     0.050 C 
HETATM    5  C11 LVA A 429      85.582 125.985 108.174  1.00 18.97     0.022 C 
HETATM    6  C12 LVA A 429      84.797 127.231 107.744  1.00 20.64     0.011 C 
HETATM    7  C14 LVA A 429      86.963 129.860 109.154  1.00 22.58    -0.031 C 
HETATM    8  C15 LVA A 429      84.931 129.670 107.202  1.00 29.33     0.129 C 
HETATM    9  C19 LVA A 429      85.947 130.797 107.012  1.00 28.96     0.035 C 
HETATM   10  C20 LVA A 429      86.564 125.488 107.131  1.00 18.11     0.005 C 
HETATM   11  C22 LVA A 429      86.706 131.080 108.312  1.00 27.45     0.024 C 
HETATM   12  C23 LVA A 429      85.961 132.181 109.167  1.00 27.49     0.005 C 
ENDROOT
BRANCH   6  13
HETATM   13  C18 LVA A 429      83.925 127.037 106.486  1.00 19.74     0.003 C 
BRANCH  13  14
HETATM   14  C16 LVA A 429      82.947 125.892 106.676  1.00 16.97     0.033 C 
BRANCH  14  15
HETATM   15  C7  LVA A 429      81.506 126.331 106.550  1.00 17.04     0.155 C 
HETATM   16  O8  LVA A 429      81.144 126.068 105.159  1.00 11.88    -0.223 OA
BRANCH  15  17
HETATM   17  C17 LVA A 429      80.552 125.593 107.487  1.00 16.96     0.066 C 
BRANCH  17  18
HETATM   18  C13 LVA A 429      80.392 126.430 108.729  1.00 18.19     0.165 C 
HETATM   19  O2  LVA A 429      78.990 126.378 109.109  1.00 20.16    -0.223 OA
BRANCH  18  20
HETATM   20  C21 LVA A 429      81.119 125.951 109.893  1.00 19.54     0.131 C 
BRANCH  20  21
HETATM   21  C10 LVA A 429      82.293 126.545 110.380  1.00 23.47     0.188 C 
HETATM   22  O3  LVA A 429      83.131 125.957 110.947  1.00 27.05    -0.647 OA
HETATM   23  O1  LVA A 429      82.429 127.867 110.249  1.00 29.33    -0.647 OA
ENDBRANCH  20  21
ENDBRANCH  18  20
ENDBRANCH  17  18
ENDBRANCH  15  17
ENDBRANCH  14  15
ENDBRANCH  13  14
ENDBRANCH   6  13
BRANCH   8  24
HETATM   24  O4  LVA A 429      83.829 130.144 108.063  1.00 36.01    -0.304 OA
BRANCH  24  25
HETATM   25  C24 LVA A 429      82.735 130.771 107.583  1.00 36.32     0.271 C 
HETATM   26  O26 LVA A 429      82.682 131.985 107.489  1.00 40.47    -0.264 OA
BRANCH  25  27
HETATM   27  C25 LVA A 429      81.652 129.817 107.180  1.00 33.59     0.086 C 
HETATM   28  C28 LVA A 429      80.499 130.049 108.155  1.00 35.43     0.010 C 
BRANCH  27  29
HETATM   29  C27 LVA A 429      81.194 129.989 105.753  1.00 32.10     0.010 C 
HETATM   30  C29 LVA A 429      82.247 129.774 104.717  1.00 28.07     0.001 C 
ENDBRANCH  27  29
ENDBRANCH  25  27
ENDBRANCH  24  25
ENDBRANCH   8  24
TORSDOF 11
ENDMDL
MODEL 2
REMARK VINA RESULT:      -6.5      2.052      4.002
REMARK  11 active torsions:
REMARK  status: ('A' for Active; 'I' for Inactive)
REMARK    1  A    between atoms: O4_5534  and  C24_5554 
REMARK    2  A    between atoms: O4_5534  and  C15_5545 
REMARK    3  A    between atoms: C7_5537  and  C17_5547 
REMARK    4  A    between atoms: C7_5537  and  C16_5546 
REMARK    5  A    between atoms: C10_5540  and  C21_5551 
REMARK    6  A    between atoms: C12_5542  and  C18_5548 
REMARK    7  A    between atoms: C13_5543  and  C21_5551 
REMARK    8  A    between atoms: C13_5543  and  C17_5547 
REMARK    9  A    between atoms: C16_5546  and  C18_5548 
REMARK   10  A    between atoms: C24_5554  and  C25_5555 
REMARK   11  A    between atoms: C25_5555  and  C27_5557 
ROOT
HETATM    1  C5  LVA A 429      86.894 127.610 109.697  1.00 19.62    -0.009 C 
HETATM    2  C6  LVA A 429      86.569 128.741 108.858  1.00 22.90    -0.025 C 
HETATM    3  C8  LVA A 429      86.598 126.340 109.413  1.00 20.40    -0.027 C 
HETATM    4  C9  LVA A 429      85.870 128.416 107.519  1.00 24.43     0.050 C 
HETATM    5  C11 LVA A 429      85.871 126.009 108.148  1.00 18.97     0.022 C 
HETATM    6  C12 LVA A 429      84.987 127.185 107.717  1.00 20.64     0.011 C 
HETATM    7  C14 LVA A 429      86.888 129.979 109.191  1.00 22.58    -0.031 C 
HETATM    8  C15 LVA A 429      84.913 129.633 107.203  1.00 29.33     0.129 C 
HETATM    9  C19 LVA A 429      85.828 130.847 107.042  1.00 28.96     0.035 C 
HETATM   10  C20 LVA A 429      86.911 125.613 107.117  1.00 18.11     0.005 C 
HETATM   11  C22 LVA A 429      86.538 131.181 108.358  1.00 27.45     0.024 C 
HETATM   12  C23 LVA A 429      85.684 132.202 109.211  1.00 27.49     0.005 C 
ENDROOT
BRANCH   6  13
HETATM   13  C18 LVA A 429      84.155 126.930 106.442  1.00 19.74     0.003 C 
BRANCH  13  14
HETATM   14  C16 LVA A 429      83.669 125.493 106.391  1.00 16.97     0.033 C 
BRANCH  14  15
HETATM   15  C7  LVA A 429      82.481 125.313 105.474  1.00 17.04     0.155 C 
HETATM   16  O8  LVA A 429      81.325 125.207 106.359  1.00 11.88    -0.223 OA
BRANCH  15  17
HETATM   17  C17 LVA A 429      82.283 126.463 104.489  1.00 16.96     0.066 C 
BRANCH  17  18
HETATM   18  C13 LVA A 429      82.990 126.098 103.210  1.00 18.19     0.165 C 
HETATM   19  O2  LVA A 429      82.451 124.825 102.764  1.00 20.16    -0.223 OA
BRANCH  18  20
HETATM   20  C21 LVA A 429      82.770 127.013 102.102  1.00 19.54     0.131 C 
BRANCH  20  21
HETATM   21  C10 LVA A 429      83.513 128.185 101.897  1.00 23.47     0.188 C 
HETATM   22  O3  LVA A 429      83.222 129.226 102.348  1.00 27.05    -0.647 OA
HETATM   23  O1  LVA A 429      84.573 128.124 101.088  1.00 29.33    -0.647 OA
ENDBRANCH  20  21
ENDBRANCH  18  20
ENDBRANCH  17  18
ENDBRANCH  15  17
ENDBRANCH  14  15
ENDBRANCH  13  14
ENDBRANCH   6  13
BRANCH   8  24
HETATM   24  O4  LVA A 429      83.759 129.998 108.049  1.00 36.01    -0.304 OA
BRANCH  24  25
HETATM   25  C24 LVA A 429      82.498 130.086 107.580  1.00 36.32     0.271 C 
HETATM   26  O26 LVA A 429      82.223 130.761 106.604  1.00 40.47    -0.264 OA
BRANCH  25  27
HETATM   27  C25 LVA A 429      81.527 129.262 108.372  1.00 33.59     0.086 C 
HETATM   28  C28 LVA A 429      80.763 128.416 107.356  1.00 35.43     0.010 C 
BRANCH  27  29
HETATM   29  C27 LVA A 429      82.183 128.391 109.415  1.00 32.10     0.010 C 
HETATM   30  C29 LVA A 429      81.781 126.954 109.388  1.00 28.07     0.001 C 
ENDBRANCH  27  29
ENDBRANCH  25  27
ENDBRANCH  24  25
ENDBRANCH   8  24
TORSDOF 11
ENDMDL
MODEL 3
REMARK VINA RESULT:      -6.4      2.732      6.257
REMARK  11 active torsions:
REMARK  status: ('A' for Active; 'I' for Inactive)
REMARK    1  A    between atoms: O4_5534  and  C24_5554 
REMARK    2  A    between atoms: O4_5534  and  C15_5545 
REMARK    3  A    between atoms: C7_5537  and  C17_5547 
REMARK    4  A    between atoms: C7_5537  and  C16_5546 
REMARK    5  A    between atoms: C10_5540  and  C21_5551 
REMARK    6  A    between atoms: C12_5542  and  C18_5548 
REMARK    7  A    between atoms: C13_5543  and  C21_5551 
REMARK    8  A    between atoms: C13_5543  and  C17_5547 
REMARK    9  A    between atoms: C16_5546  and  C18_5548 
REMARK   10  A    between atoms: C24_5554  and  C25_5555 
REMARK   11  A    between atoms: C25_5555  and  C27_5557 
ROOT
HETATM    1  C5  LVA A 429      78.979 125.446 108.454  1.00 19.62    -0.009 C 
HETATM    2  C6  LVA A 429      79.199 126.584 107.589  1.00 22.90    -0.025 C 
HETATM    3  C8  LVA A 429      79.741 125.128 109.503  1.00 20.40    -0.027 C 
HETATM    4  C9  LVA A 429      80.383 127.504 107.963  1.00 24.43     0.050 C 
HETATM    5  C11 LVA A 429      80.925 125.975 109.849  1.00 18.97     0.022 C 
HETATM    6  C12 LVA A 429      81.483 126.651 108.591  1.00 20.64     0.011 C 
HETATM    7  C14 LVA A 429      78.411 126.850 106.563  1.00 22.58    -0.031 C 
HETATM    8  C15 LVA A 429      80.952 128.079 106.607  1.00 29.33     0.129 C 
HETATM    9  C19 LVA A 429      79.816 128.900 105.995  1.00 28.96     0.035 C 
HETATM   10  C20 LVA A 429      80.489 126.948 110.927  1.00 18.11     0.005 C 
HETATM   11  C22 LVA A 429      78.628 128.006 105.625  1.00 27.45     0.024 C 
HETATM   12  C23 LVA A 429      78.765 127.480 104.140  1.00 27.49     0.005 C 
ENDROOT
BRANCH   6  13
HETATM   13  C18 LVA A 429      82.739 127.515 108.830  1.00 19.74     0.003 C 
BRANCH  13  14
HETATM   14  C16 LVA A 429      83.865 126.683 109.418  1.00 16.97     0.033 C 
BRANCH  14  15
HETATM   15  C7  LVA A 429      85.202 127.385 109.352  1.00 17.04     0.155 C 
HETATM   16  O8  LVA A 429      85.095 128.503 110.286  1.00 11.88    -0.223 OA
BRANCH  15  17
HETATM   17  C17 LVA A 429      86.384 126.496 109.733  1.00 16.96     0.066 C 
BRANCH  17  18
HETATM   18  C13 LVA A 429      86.286 125.231 108.921  1.00 18.19     0.165 C 
HETATM   19  O2  LVA A 429      86.899 125.495 107.630  1.00 20.16    -0.223 OA
BRANCH  18  20
HETATM   20  C21 LVA A 429      87.013 124.094 109.462  1.00 19.54     0.131 C 
BRANCH  20  21
HETATM   21  C10 LVA A 429      86.693 122.757 109.184  1.00 23.47     0.188 C 
HETATM   22  O3  LVA A 429      86.355 121.987 109.999  1.00 27.05    -0.647 OA
HETATM   23  O1  LVA A 429      86.846 122.322 107.931  1.00 29.33    -0.647 OA
ENDBRANCH  20  21
ENDBRANCH  18  20
ENDBRANCH  17  18
ENDBRANCH  15  17
ENDBRANCH  14  15
ENDBRANCH  13  14
ENDBRANCH   6  13
BRANCH   8  24
HETATM   24  O4  LVA A 429      81.564 127.234 105.561  1.00 36.01    -0.304 OA
BRANCH  24  25
HETATM   25  C24 LVA A 429      82.865 127.311 105.217  1.00 36.32     0.271 C 
HETATM   26  O26 LVA A 429      83.483 128.360 105.273  1.00 40.47    -0.264 OA
BRANCH  25  27
HETATM   27  C25 LVA A 429      83.431 125.988 104.797  1.00 33.59     0.086 C 
HETATM   28  C28 LVA A 429      83.661 125.198 106.083  1.00 35.43     0.010 C 
BRANCH  27  29
HETATM   29  C27 LVA A 429      82.543 125.225 103.846  1.00 32.10     0.010 C 
HETATM   30  C29 LVA A 429      82.644 125.634 102.413  1.00 28.07     0.001 C 
ENDBRANCH  27  29
ENDBRANCH  25  27
ENDBRANCH  24  25
ENDBRANCH   8  24
TORSDOF 11
ENDMDL
MODEL 4
REMARK VINA RESULT:      -6.4      2.769      6.276
REMARK  11 active torsions:
REMARK  status: ('A' for Active; 'I' for Inactive)
REMARK    1  A    between atoms: O4_5534  and  C24_5554 
REMARK    2  A    between atoms: O4_5534  and  C15_5545 
REMARK    3  A    between atoms: C7_5537  and  C17_5547 
REMARK    4  A    between atoms: C7_5537  and  C16_5546 
REMARK    5  A    between atoms: C10_5540  and  C21_5551 
REMARK    6  A    between atoms: C12_5542  and  C18_5548 
REMARK    7  A    between atoms: C13_5543  and  C21_5551 
REMARK    8  A    between atoms: C13_5543  and  C17_5547 
REMARK    9  A    between atoms: C16_5546  and  C18_5548 
REMARK   10  A    between atoms: C24_5554  and  C25_5555 
REMARK   11  A    between atoms: C25_5555  and  C27_5557 
ROOT
HETATM    1  C5  LVA A 429      79.445 125.121 109.124  1.00 19.62    -0.009 C 
HETATM    2  C6  LVA A 429      79.236 126.116 108.096  1.00 22.90    -0.025 C 
HETATM    3  C8  LVA A 429      80.388 125.186 110.067  1.00 20.40    -0.027 C 
HETATM    4  C9  LVA A 429      80.159 127.355 108.150  1.00 24.43     0.050 C 
HETATM    5  C11 LVA A 429      81.327 126.350 110.104  1.00 18.97     0.022 C 
HETATM    6  C12 LVA A 429      81.519 126.924 108.695  1.00 20.64     0.011 C 
HETATM    7  C14 LVA A 429      78.285 125.998 107.186  1.00 22.58    -0.031 C 
HETATM    8  C15 LVA A 429      80.377 127.819 106.656  1.00 29.33     0.129 C 
HETATM    9  C19 LVA A 429      78.994 128.211 106.138  1.00 28.96     0.035 C 
HETATM   10  C20 LVA A 429      80.776 127.348 111.104  1.00 18.11     0.005 C 
HETATM   11  C22 LVA A 429      78.060 126.997 106.084  1.00 27.45     0.024 C 
HETATM   12  C23 LVA A 429      78.153 126.282 104.678  1.00 27.49     0.005 C 
ENDROOT
BRANCH   6  13
HETATM   13  C18 LVA A 429      82.509 128.105 108.613  1.00 19.74     0.003 C 
BRANCH  13  14
HETATM   14  C16 LVA A 429      83.845 127.737 109.235  1.00 16.97     0.033 C 
BRANCH  14  15
HETATM   15  C7  LVA A 429      84.725 126.944 108.296  1.00 17.04     0.155 C 
HETATM   16  O8  LVA A 429      85.068 127.869 107.219  1.00 11.88    -0.223 OA
BRANCH  15  17
HETATM   17  C17 LVA A 429      85.995 126.405 108.949  1.00 16.96     0.066 C 
BRANCH  17  18
HETATM   18  C13 LVA A 429      86.183 124.984 108.484  1.00 18.19     0.165 C 
HETATM   19  O2  LVA A 429      86.932 125.031 107.240  1.00 20.16    -0.223 OA
BRANCH  18  20
HETATM   20  C21 LVA A 429      86.970 124.145 109.371  1.00 19.54     0.131 C 
BRANCH  20  21
HETATM   21  C10 LVA A 429      86.774 122.764 109.519  1.00 23.47     0.188 C 
HETATM   22  O3  LVA A 429      86.198 122.282 110.417  1.00 27.05    -0.647 OA
HETATM   23  O1  LVA A 429      87.333 121.950 108.620  1.00 29.33    -0.647 OA
ENDBRANCH  20  21
ENDBRANCH  18  20
ENDBRANCH  17  18
ENDBRANCH  15  17
ENDBRANCH  14  15
ENDBRANCH  13  14
ENDBRANCH   6  13
BRANCH   8  24
HETATM   24  O4  LVA A 429      81.064 126.993 105.643  1.00 36.01    -0.304 OA
BRANCH  24  25
HETATM   25  C24 LVA A 429      82.095 127.442 104.899  1.00 36.32     0.271 C 
HETATM   26  O26 LVA A 429      82.122 128.579 104.461  1.00 40.47    -0.264 OA
BRANCH  25  27
HETATM   27  C25 LVA A 429      83.165 126.410 104.709  1.00 33.59     0.086 C 
HETATM   28  C28 LVA A 429      82.763 125.220 105.577  1.00 35.43     0.010 C 
BRANCH  27  29
HETATM   29  C27 LVA A 429      83.353 125.991 103.272  1.00 32.10     0.010 C 
HETATM   30  C29 LVA A 429      82.173 125.326 102.643  1.00 28.07     0.001 C 
ENDBRANCH  27  29
ENDBRANCH  25  27
ENDBRANCH  24  25
ENDBRANCH   8  24
TORSDOF 11
ENDMDL
MODEL 5
REMARK VINA RESULT:      -6.0      2.541      6.469
REMARK  11 active torsions:
REMARK  status: ('A' for Active; 'I' for Inactive)
REMARK    1  A    between atoms: O4_5534  and  C24_5554 
REMARK    2  A    between atoms: O4_5534  and  C15_5545 
REMARK    3  A    between atoms: C7_5537  and  C17_5547 
REMARK    4  A    between atoms: C7_5537  and  C16_5546 
REMARK    5  A    between atoms: C10_5540  and  C21_5551 
REMARK    6  A    between atoms: C12_5542  and  C18_5548 
REMARK    7  A    between atoms: C13_5543  and  C21_5551 
REMARK    8  A    between atoms: C13_5543  and  C17_5547 
REMARK    9  A    between atoms: C16_5546  and  C18_5548 
REMARK   10  A    between atoms: C24_5554  and  C25_5555 
REMARK   11  A    between atoms: C25_5555  and  C27_5557 
ROOT
HETATM    1  C5  LVA A 429      78.857 124.812 108.224  1.00 19.62    -0.009 C 
HETATM    2  C6  LVA A 429      78.817 125.830 107.198  1.00 22.90    -0.025 C 
HETATM    3  C8  LVA A 429      79.581 124.886 109.343  1.00 20.40    -0.027 C 
HETATM    4  C9  LVA A 429      79.649 127.103 107.470  1.00 24.43     0.050 C 
HETATM    5  C11 LVA A 429      80.436 126.086 109.599  1.00 18.97     0.022 C 
HETATM    6  C12 LVA A 429      80.887 126.713 108.274  1.00 20.64     0.011 C 
HETATM    7  C14 LVA A 429      78.080 125.701 106.109  1.00 22.58    -0.031 C 
HETATM    8  C15 LVA A 429      80.148 127.624 106.065  1.00 29.33     0.129 C 
HETATM    9  C19 LVA A 429      78.883 127.974 105.280  1.00 28.96     0.035 C 
HETATM   10  C20 LVA A 429      79.645 127.028 110.486  1.00 18.11     0.005 C 
HETATM   11  C22 LVA A 429      78.040 126.725 105.007  1.00 27.45     0.024 C 
HETATM   12  C23 LVA A 429      78.453 126.060 103.634  1.00 27.49     0.005 C 
ENDROOT
BRANCH   6  13
HETATM   13  C18 LVA A 429      81.816 127.936 108.426  1.00 19.74     0.003 C 
BRANCH  13  14
HETATM   14  C16 LVA A 429      83.231 127.503 108.766  1.00 16.97     0.033 C 
BRANCH  14  15
HETATM   15  C7  LVA A 429      84.272 128.480 108.271  1.00 17.04     0.155 C 
HETATM   16  O8  LVA A 429      83.530 129.690 107.926  1.00 11.88    -0.223 OA
BRANCH  15  17
HETATM   17  C17 LVA A 429      85.353 128.804 109.300  1.00 16.96     0.066 C 
BRANCH  17  18
HETATM   18  C13 LVA A 429      86.604 128.067 108.899  1.00 18.19     0.165 C 
HETATM   19  O2  LVA A 429      87.736 128.872 109.324  1.00 20.16    -0.223 OA
BRANCH  18  20
HETATM   20  C21 LVA A 429      86.791 126.777 109.542  1.00 19.54     0.131 C 
BRANCH  20  21
HETATM   21  C10 LVA A 429      86.660 125.548 108.879  1.00 23.47     0.188 C 
HETATM   22  O3  LVA A 429      86.327 124.558 109.407  1.00 27.05    -0.647 OA
HETATM   23  O1  LVA A 429      87.000 125.490 107.589  1.00 29.33    -0.647 OA
ENDBRANCH  20  21
ENDBRANCH  18  20
ENDBRANCH  17  18
ENDBRANCH  15  17
ENDBRANCH  14  15
ENDBRANCH  13  14
ENDBRANCH   6  13
BRANCH   8  24
HETATM   24  O4  LVA A 429      81.067 126.860 105.197  1.00 36.01    -0.304 OA
BRANCH  24  25
HETATM   25  C24 LVA A 429      82.328 127.254 104.929  1.00 36.32     0.271 C 
HETATM   26  O26 LVA A 429      82.653 128.429 104.959  1.00 40.47    -0.264 OA
BRANCH  25  27
HETATM   27  C25 LVA A 429      83.241 126.105 104.625  1.00 33.59     0.086 C 
HETATM   28  C28 LVA A 429      83.243 125.225 105.873  1.00 35.43     0.010 C 
BRANCH  27  29
HETATM   29  C27 LVA A 429      82.831 125.313 103.408  1.00 32.10     0.010 C 
HETATM   30  C29 LVA A 429      82.702 126.104 102.148  1.00 28.07     0.001 C 
ENDBRANCH  27  29
ENDBRANCH  25  27
ENDBRANCH  24  25
ENDBRANCH   8  24
TORSDOF 11
ENDMDL
MODEL 6
REMARK VINA RESULT:      -6.0      2.334      5.791
REMARK  11 active torsions:
REMARK  status: ('A' for Active; 'I' for Inactive)
REMARK    1  A    between atoms: O4_5534  and  C24_5554 
REMARK    2  A    between atoms: O4_5534  and  C15_5545 
REMARK    3  A    between atoms: C7_5537  and  C17_5547 
REMARK    4  A    between atoms: C7_5537  and  C16_5546 
REMARK    5  A    between atoms: C10_5540  and  C21_5551 
REMARK    6  A    between atoms: C12_5542  and  C18_5548 
REMARK    7  A    between atoms: C13_5543  and  C21_5551 
REMARK    8  A    between atoms: C13_5543  and  C17_5547 
REMARK    9  A    between atoms: C16_5546  and  C18_5548 
REMARK   10  A    between atoms: C24_5554  and  C25_5555 
REMARK   11  A    between atoms: C25_5555  and  C27_5557 
ROOT
HETATM    1  C5  LVA A 429      82.363 126.661 110.029  1.00 19.62    -0.009 C 
HETATM    2  C6  LVA A 429      83.587 126.653 109.260  1.00 22.90    -0.025 C 
HETATM    3  C8  LVA A 429      81.158 126.965 109.541  1.00 20.40    -0.027 C 
HETATM    4  C9  LVA A 429      83.448 126.979 107.756  1.00 24.43     0.050 C 
HETATM    5  C11 LVA A 429      81.010 127.337 108.100  1.00 18.97     0.022 C 
HETATM    6  C12 LVA A 429      82.303 127.974 107.577  1.00 20.64     0.011 C 
HETATM    7  C14 LVA A 429      84.754 126.344 109.798  1.00 22.58    -0.031 C 
HETATM    8  C15 LVA A 429      84.779 127.714 107.329  1.00 29.33     0.129 C 
HETATM    9  C19 LVA A 429      85.901 126.699 107.550  1.00 28.96     0.035 C 
HETATM   10  C20 LVA A 429      80.594 126.088 107.347  1.00 18.11     0.005 C 
HETATM   11  C22 LVA A 429      86.050 126.356 109.035  1.00 27.45     0.024 C 
HETATM   12  C23 LVA A 429      87.080 127.331 109.734  1.00 27.49     0.005 C 
ENDROOT
BRANCH   6  13
HETATM   13  C18 LVA A 429      82.242 128.439 106.107  1.00 19.74     0.003 C 
BRANCH  13  14
HETATM   14  C16 LVA A 429      81.772 129.880 106.013  1.00 16.97     0.033 C 
BRANCH  14  15
HETATM   15  C7  LVA A 429      82.061 130.499 104.665  1.00 17.04     0.155 C 
HETATM   16  O8  LVA A 429      82.925 131.643 104.946  1.00 11.88    -0.223 OA
BRANCH  15  17
HETATM   17  C17 LVA A 429      82.750 129.551 103.686  1.00 16.96     0.066 C 
BRANCH  17  18
HETATM   18  C13 LVA A 429      82.246 129.876 102.304  1.00 18.19     0.165 C 
HETATM   19  O2  LVA A 429      82.969 131.049 101.843  1.00 20.16    -0.223 OA
BRANCH  18  20
HETATM   20  C21 LVA A 429      82.500 128.855 101.301  1.00 19.54     0.131 C 
BRANCH  20  21
HETATM   21  C10 LVA A 429      83.534 127.911 101.391  1.00 23.47     0.188 C 
HETATM   22  O3  LVA A 429      84.643 128.132 101.086  1.00 27.05    -0.647 OA
HETATM   23  O1  LVA A 429      83.223 126.673 101.781  1.00 29.33    -0.647 OA
ENDBRANCH  20  21
ENDBRANCH  18  20
ENDBRANCH  17  18
ENDBRANCH  15  17
ENDBRANCH  14  15
ENDBRANCH  13  14
ENDBRANCH   6  13
BRANCH   8  24
HETATM   24  O4  LVA A 429      85.191 129.025 107.870  1.00 36.01    -0.304 OA
BRANCH  24  25
HETATM   25  C24 LVA A 429      85.615 130.044 107.095  1.00 36.32     0.271 C 
HETATM   26  O26 LVA A 429      85.557 129.991 105.879  1.00 40.47    -0.264 OA
BRANCH  25  27
HETATM   27  C25 LVA A 429      86.124 131.205 107.894  1.00 33.59     0.086 C 
HETATM   28  C28 LVA A 429      84.912 131.779 108.624  1.00 35.43     0.010 C 
BRANCH  27  29
HETATM   29  C27 LVA A 429      87.216 130.837 108.867  1.00 32.10     0.010 C 
HETATM   30  C29 LVA A 429      87.935 131.991 109.483  1.00 28.07     0.001 C 
ENDBRANCH  27  29
ENDBRANCH  25  27
ENDBRANCH  24  25
ENDBRANCH   8  24
TORSDOF 11
ENDMDL
MODEL 7
REMARK VINA RESULT:      -6.0      2.208      5.644
REMARK  11 active torsions:
REMARK  status: ('A' for Active; 'I' for Inactive)
REMARK    1  A    between atoms: O4_5534  and  C24_5554 
REMARK    2  A    between atoms: O4_5534  and  C15_5545 
REMARK    3  A    between atoms: C7_5537  and  C17_5547 
REMARK    4  A    between atoms: C7_5537  and  C16_5546 
REMARK    5  A    between atoms: C10_5540  and  C21_5551 
REMARK    6  A    between atoms: C12_5542  and  C18_5548 
REMARK    7  A    between atoms: C13_5543  and  C21_5551 
REMARK    8  A    between atoms: C13_5543  and  C17_5547 
REMARK    9  A    between atoms: C16_5546  and  C18_5548 
REMARK   10  A    between atoms: C24_5554  and  C25_5555 
REMARK   11  A    between atoms: C25_5555  and  C27_5557 
ROOT
HETATM    1  C5  LVA A 429      87.668 130.073 108.954  1.00 19.62    -0.009 C 
HETATM    2  C6  LVA A 429      86.732 129.006 109.227  1.00 22.90    -0.025 C 
HETATM    3  C8  LVA A 429      87.329 131.303 108.561  1.00 20.40    -0.027 C 
HETATM    4  C9  LVA A 429      85.234 129.363 109.088  1.00 24.43     0.050 C 
HETATM    5  C11 LVA A 429      85.888 131.652 108.367  1.00 18.97     0.022 C 
HETATM    6  C12 LVA A 429      85.083 130.405 107.982  1.00 20.64     0.011 C 
HETATM    7  C14 LVA A 429      87.126 127.806 109.614  1.00 22.58    -0.031 C 
HETATM    8  C15 LVA A 429      84.502 128.052 108.599  1.00 29.33     0.129 C 
HETATM    9  C19 LVA A 429      84.701 127.026 109.716  1.00 28.96     0.035 C 
HETATM   10  C20 LVA A 429      85.407 132.325 109.639  1.00 18.11     0.005 C 
HETATM   11  C22 LVA A 429      86.181 126.664 109.875  1.00 27.45     0.024 C 
HETATM   12  C23 LVA A 429      86.557 125.430 108.962  1.00 27.49     0.005 C 
ENDROOT
BRANCH   6  13
HETATM   13  C18 LVA A 429      83.586 130.665 107.712  1.00 19.74     0.003 C 
BRANCH  13  14
HETATM   14  C16 LVA A 429      83.388 131.975 106.970  1.00 16.97     0.033 C 
BRANCH  14  15
HETATM   15  C7  LVA A 429      83.031 131.771 105.516  1.00 17.04     0.155 C 
HETATM   16  O8  LVA A 429      84.229 132.146 104.770  1.00 11.88    -0.223 OA
BRANCH  15  17
HETATM   17  C17 LVA A 429      82.629 130.338 105.175  1.00 16.96     0.066 C 
BRANCH  17  18
HETATM   18  C13 LVA A 429      81.338 130.396 104.400  1.00 18.19     0.165 C 
HETATM   19  O2  LVA A 429      80.954 131.794 104.301  1.00 20.16    -0.223 OA
BRANCH  18  20
HETATM   20  C21 LVA A 429      81.422 129.926 103.027  1.00 19.54     0.131 C 
BRANCH  20  21
HETATM   21  C10 LVA A 429      82.604 129.929 102.271  1.00 23.47     0.188 C 
HETATM   22  O3  LVA A 429      83.280 128.986 102.119  1.00 27.05    -0.647 OA
HETATM   23  O1  LVA A 429      83.015 131.089 101.753  1.00 29.33    -0.647 OA
ENDBRANCH  20  21
ENDBRANCH  18  20
ENDBRANCH  17  18
ENDBRANCH  15  17
ENDBRANCH  14  15
ENDBRANCH  13  14
ENDBRANCH   6  13
BRANCH   8  24
HETATM   24  O4  LVA A 429      84.768 127.413 107.294  1.00 36.01    -0.304 OA
BRANCH  24  25
HETATM   25  C24 LVA A 429      83.974 126.460 106.763  1.00 36.32     0.271 C 
HETATM   26  O26 LVA A 429      84.400 125.352 106.488  1.00 40.47    -0.264 OA
BRANCH  25  27
HETATM   27  C25 LVA A 429      82.559 126.920 106.585  1.00 33.59     0.086 C 
HETATM   28  C28 LVA A 429      82.260 126.796 105.092  1.00 35.43     0.010 C 
BRANCH  27  29
HETATM   29  C27 LVA A 429      81.561 126.138 107.402  1.00 32.10     0.010 C 
HETATM   30  C29 LVA A 429      81.054 126.832 108.622  1.00 28.07     0.001 C 
ENDBRANCH  27  29
ENDBRANCH  25  27
ENDBRANCH  24  25
ENDBRANCH   8  24
TORSDOF 11
ENDMDL
MODEL 8
REMARK VINA RESULT:      -5.9      2.473      6.476
REMARK  11 active torsions:
REMARK  status: ('A' for Active; 'I' for Inactive)
REMARK    1  A    between atoms: O4_5534  and  C24_5554 
REMARK    2  A    between atoms: O4_5534  and  C15_5545 
REMARK    3  A    between atoms: C7_5537  and  C17_5547 
REMARK    4  A    between atoms: C7_5537  and  C16_5546 
REMARK    5  A    between atoms: C10_5540  and  C21_5551 
REMARK    6  A    between atoms: C12_5542  and  C18_5548 
REMARK    7  A    between atoms: C13_5543  and  C21_5551 
REMARK    8  A    between atoms: C13_5543  and  C17_5547 
REMARK    9  A    between atoms: C16_5546  and  C18_5548 
REMARK   10  A    between atoms: C24_5554  and  C25_5555 
REMARK   11  A    between atoms: C25_5555  and  C27_5557 
ROOT
HETATM    1  C5  LVA A 429      79.009 124.996 108.490  1.00 19.62    -0.009 C 
HETATM    2  C6  LVA A 429      78.931 126.005 107.457  1.00 22.90    -0.025 C 
HETATM    3  C8  LVA A 429      79.879 125.007 109.502  1.00 20.40    -0.027 C 
HETATM    4  C9  LVA A 429      79.911 127.192 107.591  1.00 24.43     0.050 C 
HETATM    5  C11 LVA A 429      80.872 126.119 109.619  1.00 18.97     0.022 C 
HETATM    6  C12 LVA A 429      81.202 126.688 108.234  1.00 20.64     0.011 C 
HETATM    7  C14 LVA A 429      78.048 125.941 106.477  1.00 22.58    -0.031 C 
HETATM    8  C15 LVA A 429      80.267 127.649 106.122  1.00 29.33     0.129 C 
HETATM    9  C19 LVA A 429      78.950 128.117 105.503  1.00 28.96     0.035 C 
HETATM   10  C20 LVA A 429      80.301 127.141 110.582  1.00 18.11     0.005 C 
HETATM   11  C22 LVA A 429      77.960 126.955 105.369  1.00 27.45     0.024 C 
HETATM   12  C23 LVA A 429      78.121 126.241 103.968  1.00 27.49     0.005 C 
ENDROOT
BRANCH   6  13
HETATM   13  C18 LVA A 429      82.256 127.814 108.236  1.00 19.74     0.003 C 
BRANCH  13  14
HETATM   14  C16 LVA A 429      83.652 127.249 108.431  1.00 16.97     0.033 C 
BRANCH  14  15
HETATM   15  C7  LVA A 429      84.583 127.592 107.290  1.00 17.04     0.155 C 
HETATM   16  O8  LVA A 429      84.355 129.010 107.023  1.00 11.88    -0.223 OA
BRANCH  15  17
HETATM   17  C17 LVA A 429      86.057 127.348 107.602  1.00 16.96     0.066 C 
BRANCH  17  18
HETATM   18  C13 LVA A 429      86.345 127.948 108.954  1.00 18.19     0.165 C 
HETATM   19  O2  LVA A 429      86.880 126.890 109.793  1.00 20.16    -0.223 OA
BRANCH  18  20
HETATM   20  C21 LVA A 429      87.358 128.990 108.962  1.00 19.54     0.131 C 
BRANCH  20  21
HETATM   21  C10 LVA A 429      87.097 130.332 109.277  1.00 23.47     0.188 C 
HETATM   22  O3  LVA A 429      86.030 130.746 109.521  1.00 27.05    -0.647 OA
HETATM   23  O1  LVA A 429      88.113 131.197 109.231  1.00 29.33    -0.647 OA
ENDBRANCH  20  21
ENDBRANCH  18  20
ENDBRANCH  17  18
ENDBRANCH  15  17
ENDBRANCH  14  15
ENDBRANCH  13  14
ENDBRANCH   6  13
BRANCH   8  24
HETATM   24  O4  LVA A 429      80.985 126.792 105.156  1.00 36.01    -0.304 OA
BRANCH  24  25
HETATM   25  C24 LVA A 429      82.126 127.165 104.543  1.00 36.32     0.271 C 
HETATM   26  O26 LVA A 429      82.398 128.338 104.352  1.00 40.47    -0.264 OA
BRANCH  25  27
HETATM   27  C25 LVA A 429      82.988 125.998 104.165  1.00 33.59     0.086 C 
HETATM   28  C28 LVA A 429      82.920 125.024 105.340  1.00 35.43     0.010 C 
BRANCH  27  29
HETATM   29  C27 LVA A 429      82.566 125.326 102.882  1.00 32.10     0.010 C 
HETATM   30  C29 LVA A 429      82.898 126.073 101.633  1.00 28.07     0.001 C 
ENDBRANCH  27  29
ENDBRANCH  25  27
ENDBRANCH  24  25
ENDBRANCH   8  24
TORSDOF 11
ENDMDL
MODEL 9
REMARK VINA RESULT:      -5.9      2.369      4.172
REMARK  11 active torsions:
REMARK  status: ('A' for Active; 'I' for Inactive)
REMARK    1  A    between atoms: O4_5534  and  C24_5554 
REMARK    2  A    between atoms: O4_5534  and  C15_5545 
REMARK    3  A    between atoms: C7_5537  and  C17_5547 
REMARK    4  A    between atoms: C7_5537  and  C16_5546 
REMARK    5  A    between atoms: C10_5540  and  C21_5551 
REMARK    6  A    between atoms: C12_5542  and  C18_5548 
REMARK    7  A    between atoms: C13_5543  and  C21_5551 
REMARK    8  A    between atoms: C13_5543  and  C17_5547 
REMARK    9  A    between atoms: C16_5546  and  C18_5548 
REMARK   10  A    between atoms: C24_5554  and  C25_5555 
REMARK   11  A    between atoms: C25_5555  and  C27_5557 
ROOT
HETATM    1  C5  LVA A 429      85.062 125.777 106.949  1.00 19.62    -0.009 C 
HETATM    2  C6  LVA A 429      84.885 127.211 107.015  1.00 22.90    -0.025 C 
HETATM    3  C8  LVA A 429      84.176 124.923 106.433  1.00 20.40    -0.027 C 
HETATM    4  C9  LVA A 429      83.584 127.765 106.392  1.00 24.43     0.050 C 
HETATM    5  C11 LVA A 429      82.886 125.434 105.875  1.00 18.97     0.022 C 
HETATM    6  C12 LVA A 429      82.475 126.731 106.582  1.00 20.64     0.011 C 
HETATM    7  C14 LVA A 429      85.798 128.009 107.538  1.00 22.58    -0.031 C 
HETATM    8  C15 LVA A 429      83.187 129.038 107.237  1.00 29.33     0.129 C 
HETATM    9  C19 LVA A 429      84.331 130.035 107.047  1.00 28.96     0.035 C 
HETATM   10  C20 LVA A 429      83.064 125.580 104.376  1.00 18.11     0.005 C 
HETATM   11  C22 LVA A 429      85.633 129.500 107.652  1.00 27.45     0.024 C 
HETATM   12  C23 LVA A 429      85.775 129.947 109.161  1.00 27.49     0.005 C 
ENDROOT
BRANCH   6  13
HETATM   13  C18 LVA A 429      81.129 127.320 106.111  1.00 19.74     0.003 C 
BRANCH  13  14
HETATM   14  C16 LVA A 429      79.993 126.344 106.362  1.00 16.97     0.033 C 
BRANCH  14  15
HETATM   15  C7  LVA A 429      78.822 126.985 107.071  1.00 17.04     0.155 C 
HETATM   16  O8  LVA A 429      77.911 127.401 106.007  1.00 11.88    -0.223 OA
BRANCH  15  17
HETATM   17  C17 LVA A 429      78.102 126.051 108.041  1.00 16.96     0.066 C 
BRANCH  17  18
HETATM   18  C13 LVA A 429      78.540 124.643 107.731  1.00 18.19     0.165 C 
HETATM   19  O2  LVA A 429      79.248 124.143 108.897  1.00 20.16    -0.223 OA
BRANCH  18  20
HETATM   20  C21 LVA A 429      77.458 123.698 107.508  1.00 19.54     0.131 C 
BRANCH  20  21
HETATM   21  C10 LVA A 429      76.745 123.596 106.304  1.00 23.47     0.188 C 
HETATM   22  O3  LVA A 429      76.118 124.472 105.845  1.00 27.05    -0.647 OA
HETATM   23  O1  LVA A 429      76.726 122.415 105.682  1.00 29.33    -0.647 OA
ENDBRANCH  20  21
ENDBRANCH  18  20
ENDBRANCH  17  18
ENDBRANCH  15  17
ENDBRANCH  14  15
ENDBRANCH  13  14
ENDBRANCH   6  13
BRANCH   8  24
HETATM   24  O4  LVA A 429      82.819 128.981 108.667  1.00 36.01    -0.304 OA
BRANCH  24  25
HETATM   25  C24 LVA A 429      81.543 128.935 109.100  1.00 36.32     0.271 C 
HETATM   26  O26 LVA A 429      80.672 129.625 108.602  1.00 40.47    -0.264 OA
BRANCH  25  27
HETATM   27  C25 LVA A 429      81.346 127.949 110.212  1.00 33.59     0.086 C 
HETATM   28  C28 LVA A 429      79.865 128.015 110.577  1.00 35.43     0.010 C 
BRANCH  27  29
HETATM   29  C27 LVA A 429      81.751 126.541 109.851  1.00 32.10     0.010 C 
HETATM   30  C29 LVA A 429      83.118 126.139 110.295  1.00 28.07     0.001 C 
ENDBRANCH  27  29
ENDBRANCH  25  27
ENDBRANCH  24  25
ENDBRANCH   8  24
TORSDOF 11
ENDMDL
