REMARK  Name = LVA.pdb
REMARK                            x       y       z     vdW  Elec       q    Type
REMARK                         _______ _______ _______ _____ _____    ______ ____
ROOT
ATOM      1  O   HOH    1       86.909 124.095 109.838  0.00  0.00    -0.410 OA
ATOM      2  H   HOH    0       86.586 123.321 109.351  0.00  0.00    +0.205 HD
ATOM      3  H   HOH    0       87.879 124.095 109.838  0.00  0.00    +0.205 HD
ENDROOT
TORSDOF 0
REMARK  Name = LVA.pdb
REMARK                            x       y       z     vdW  Elec       q    Type
REMARK                         _______ _______ _______ _____ _____    ______ ____
ROOT
ATOM      1  O   LIG    1       86.507 128.170 108.114  0.00  0.00    -0.398 OA
ATOM      2  H   LIG    1       85.912 128.848 108.470  0.00  0.00    +0.209 HD
ATOM      3  C   LIG    1       85.938 126.854 108.348  0.00  0.00    +0.189 C 
ENDROOT
TORSDOF 0
REMARK  Name = LVA.pdb
REMARK                            x       y       z     vdW  Elec       q    Type
REMARK                         _______ _______ _______ _____ _____    ______ ____
ROOT
ATOM      1  O   HOH    1       86.864 123.804 107.707  0.00  0.00    -0.410 OA
ATOM      2  H   HOH    0       86.541 122.942 108.011  0.00  0.00    +0.205 HD
ATOM      3  H   HOH    0       87.834 123.804 107.707  0.00  0.00    +0.205 HD
ENDROOT
TORSDOF 0
REMARK  Name = LVA.pdb
REMARK                            x       y       z     vdW  Elec       q    Type
REMARK                         _______ _______ _______ _____ _____    ______ ____
ROOT
ATOM      1  O   LIG    1       84.788 129.227 110.408  0.00  0.00    -0.398 OA
ATOM      2  H   LIG    1       85.081 129.986 109.880  0.00  0.00    +0.209 HD
ATOM      3  C   LIG    1       84.257 128.194 109.522  0.00  0.00    +0.189 C 
ENDROOT
TORSDOF 0
REMARK  Name = LVA.pdb
REMARK                            x       y       z     vdW  Elec       q    Type
REMARK                         _______ _______ _______ _____ _____    ______ ____
ROOT
ATOM      1  O   HOH    1       80.841 127.668 105.566  0.00  0.00    -0.410 OA
ATOM      2  H   HOH    0       80.518 127.628 104.652  0.00  0.00    +0.205 HD
ATOM      3  H   HOH    0       81.811 127.668 105.566  0.00  0.00    +0.205 HD
ENDROOT
TORSDOF 0
REMARK  Name = LVA.pdb
REMARK                            x       y       z     vdW  Elec       q    Type
REMARK                         _______ _______ _______ _____ _____    ______ ____
ROOT
ATOM      1  C   LIG    1       79.054 124.995 108.378  0.00  0.00    -0.000 C 
ENDROOT
TORSDOF 0
REMARK  Name = LVA.pdb
REMARK                            x       y       z     vdW  Elec       q    Type
REMARK                         _______ _______ _______ _____ _____    ______ ____
ROOT
ATOM      1  C   LIG    1       78.856 126.160 107.545  0.00  0.00    +0.000 C 
ATOM      2  C   LIG    1       78.029 126.156 106.515  0.00  0.00    +0.000 C 
ENDROOT
TORSDOF 0
REMARK  Name = LVA.pdb
REMARK                            x       y       z     vdW  Elec       q    Type
REMARK                         _______ _______ _______ _____ _____    ______ ____
ROOT
ATOM      1  C   LIG    1       84.257 128.194 109.522  0.00  0.00    -0.000 C 
ENDROOT
TORSDOF 0
REMARK  Name = LVA.pdb
REMARK                            x       y       z     vdW  Elec       q    Type
REMARK                         _______ _______ _______ _____ _____    ______ ____
ROOT
ATOM      1  C   LIG    1       79.875 124.940 109.429  0.00  0.00    -0.000 C 
ENDROOT
TORSDOF 0
REMARK  Name = LVA.pdb
REMARK                            x       y       z     vdW  Elec       q    Type
REMARK                         _______ _______ _______ _____ _____    ______ ____
ROOT
ATOM      1  C   LIG    1       79.632 127.431 107.958  0.00  0.00    -0.000 C 
ENDROOT
TORSDOF 0
REMARK  Name = LVA.pdb
REMARK                            x       y       z     vdW  Elec       q    Type
REMARK                         _______ _______ _______ _____ _____    ______ ____
ROOT
ATOM      1  C   LIG    1       86.967 124.566 108.590  0.00  0.00    +0.305 C 
ATOM      2  O   LIG    1       86.864 123.804 107.707  0.00  0.00    -0.305 OA
ENDROOT
TORSDOF 0
REMARK  Name = LVA.pdb
REMARK                            x       y       z     vdW  Elec       q    Type
REMARK                         _______ _______ _______ _____ _____    ______ ____
ROOT
ATOM      1  C   LIG    1       80.677 126.143 109.812  0.00  0.00    -0.000 C 
ENDROOT
TORSDOF 0
REMARK  Name = LVA.pdb
REMARK                            x       y       z     vdW  Elec       q    Type
REMARK                         _______ _______ _______ _____ _____    ______ ____
ROOT
ATOM      1  C   LIG    1       80.962 127.009 108.579  0.00  0.00    +0.000 C 
ATOM      2  C   LIG    1       79.632 127.431 107.958  0.00  0.00    +0.000 C 
ENDROOT
TORSDOF 0
REMARK  Name = LVA.pdb
REMARK                            x       y       z     vdW  Elec       q    Type
REMARK                         _______ _______ _______ _____ _____    ______ ____
ROOT
ATOM      1  C   LIG    1       78.029 126.156 106.515  0.00  0.00    -0.000 C 
ENDROOT
TORSDOF 0
REMARK  Name = LVA.pdb
REMARK                            x       y       z     vdW  Elec       q    Type
REMARK                         _______ _______ _______ _____ _____    ______ ____
ROOT
ATOM      1  C   LIG    1       79.964 128.209 106.624  0.00  0.00    -0.000 C 
ENDROOT
TORSDOF 0
REMARK  Name = LVA.pdb
REMARK                            x       y       z     vdW  Elec       q    Type
REMARK                         _______ _______ _______ _____ _____    ______ ____
ROOT
ATOM      1  C   LIG    1       82.827 127.987 109.966  0.00  0.00    -0.000 C 
ENDROOT
TORSDOF 0
REMARK  Name = LVA.pdb
REMARK                            x       y       z     vdW  Elec       q    Type
REMARK                         _______ _______ _______ _____ _____    ______ ____
ROOT
ATOM      1  C   LIG    1       85.118 126.936 109.609  0.00  0.00    -0.000 C 
ENDROOT
TORSDOF 0
REMARK  Name = LVA.pdb
REMARK                            x       y       z     vdW  Elec       q    Type
REMARK                         _______ _______ _______ _____ _____    ______ ____
ROOT
ATOM      1  C   LIG    1       81.826 128.257 108.857  0.00  0.00    -0.000 C 
ENDROOT
TORSDOF 0
REMARK  Name = LVA.pdb
REMARK                            x       y       z     vdW  Elec       q    Type
REMARK                         _______ _______ _______ _____ _____    ______ ____
ROOT
ATOM      1  C   LIG    1       78.612 128.587 106.018  0.00  0.00    -0.000 C 
ENDROOT
TORSDOF 0
REMARK  Name = LVA.pdb
REMARK                            x       y       z     vdW  Elec       q    Type
REMARK                         _______ _______ _______ _____ _____    ______ ____
ROOT
ATOM      1  C   LIG    1       79.918 126.866 110.908  0.00  0.00    +0.003 C 
ATOM      2  C   LIG    1       80.677 126.143 109.812  0.00  0.00    -0.007 C 
ATOM      3  C   LIG    1       79.875 124.940 109.429  0.00  0.00    +0.003 C 
ENDROOT
TORSDOF 0
REMARK  Name = LVA.pdb
REMARK                            x       y       z     vdW  Elec       q    Type
REMARK                         _______ _______ _______ _____ _____    ______ ____
ROOT
ATOM      1  C   LIG    1       87.077 125.953 108.412  0.00  0.00    -0.000 C 
ENDROOT
TORSDOF 0
REMARK  Name = LVA.pdb
REMARK                            x       y       z     vdW  Elec       q    Type
REMARK                         _______ _______ _______ _____ _____    ______ ____
ROOT
ATOM      1  C   LIG    1       77.823 127.339 105.609  0.00  0.00    -0.000 C 
ENDROOT
TORSDOF 0
REMARK  Name = LVA.pdb
REMARK                            x       y       z     vdW  Elec       q    Type
REMARK                         _______ _______ _______ _____ _____    ______ ____
ROOT
ATOM      1  C   LIG    1       78.144 126.939 104.114  0.00  0.00    +0.012 C 
ATOM      2  C   LIG    1       77.823 127.339 105.609  0.00  0.00    +0.008 C 
ENDROOT
BRANCH   2   3
ATOM      3  C   LIG    1       78.029 126.156 106.515  0.00  0.00    -0.031 C 
ATOM      4  C   LIG    1       78.856 126.160 107.545  0.00  0.00    +0.004 C 
ENDBRANCH   2   3
BRANCH   2   5
ATOM      5  C   LIG    1       78.612 128.587 106.018  0.00  0.00    +0.004 C 
ATOM      6  C   LIG    1       79.964 128.209 106.624  0.00  0.00    +0.004 C 
ENDBRANCH   2   5
TORSDOF 2
REMARK  Name = LVA.pdb
REMARK                            x       y       z     vdW  Elec       q    Type
REMARK                         _______ _______ _______ _____ _____    ______ ____
ROOT
ATOM      1  C   LIG    1       81.879 128.353 105.045  0.00  0.00    -0.000 C 
ENDROOT
TORSDOF 0
REMARK  Name = LVA.pdb
REMARK                            x       y       z     vdW  Elec       q    Type
REMARK                         _______ _______ _______ _____ _____    ______ ____
ROOT
ATOM      1  C   LIG    1       82.754 127.503 104.174  0.00  0.00    -0.000 C 
ENDROOT
TORSDOF 0
REMARK  Name = LVA.pdb
REMARK                            x       y       z     vdW  Elec       q    Type
REMARK                         _______ _______ _______ _____ _____    ______ ____
ROOT
ATOM      1  O   HOH    1       82.059 129.532 105.295  0.00  0.00    -0.410 OA
ATOM      2  H   HOH    0       81.736 129.379 106.197  0.00  0.00    +0.205 HD
ATOM      3  H   HOH    0       83.029 129.532 105.295  0.00  0.00    +0.205 HD
ENDROOT
TORSDOF 0
REMARK  Name = LVA.pdb
REMARK                            x       y       z     vdW  Elec       q    Type
REMARK                         _______ _______ _______ _____ _____    ______ ____
ROOT
ATOM      1  C   LIG    1       82.364 127.528 102.717  0.00  0.00    +0.000 C 
ATOM      2  C   LIG    1       83.114 126.580 101.841  0.00  0.00    +0.000 C 
ENDROOT
TORSDOF 0
REMARK  Name = LVA.pdb
REMARK                            x       y       z     vdW  Elec       q    Type
REMARK                         _______ _______ _______ _____ _____    ______ ____
ROOT
ATOM      1  C   LIG    1       82.665 126.087 104.739  0.00  0.00    -0.000 C 
ENDROOT
TORSDOF 0
REMARK  Name = LVA.pdb
REMARK                            x       y       z     vdW  Elec       q    Type
REMARK                         _______ _______ _______ _____ _____    ______ ____
ROOT
ATOM      1  C   LIG    1       83.114 126.580 101.841  0.00  0.00    -0.000 C 
ENDROOT
TORSDOF 0
REMARK  Name = LVA.pdb
REMARK                            x       y       z     vdW  Elec       q    Type
REMARK                         _______ _______ _______ _____ _____    ______ ____
ROOT
ATOM      1  O   LIG    1       86.909 124.095 109.838  0.00  0.00    -0.553 OA
ATOM      2  C   LIG    1       86.967 124.566 108.590  0.00  0.00    +0.107 C 
ATOM      3  O   LIG    1       86.864 123.804 107.707  0.00  0.00    -0.553 OA
ENDROOT
TORSDOF 0
REMARK  Name = LVA.pdb
REMARK                            x       y       z     vdW  Elec       q    Type
REMARK                         _______ _______ _______ _____ _____    ______ ____
ROOT
ATOM      1  O   HOH    1       86.507 128.170 108.114  0.00  0.00    -0.410 OA
ATOM      2  H   HOH    0       86.184 127.543 108.780  0.00  0.00    +0.205 HD
ATOM      3  H   HOH    0       87.477 128.170 108.114  0.00  0.00    +0.205 HD
ENDROOT
TORSDOF 0
REMARK  Name = LVA.pdb
REMARK                            x       y       z     vdW  Elec       q    Type
REMARK                         _______ _______ _______ _____ _____    ______ ____
ROOT
ATOM      1  O   HOH    1       84.788 129.227 110.408  0.00  0.00    -0.410 OA
ATOM      2  H   HOH    0       84.465 128.313 110.392  0.00  0.00    +0.205 HD
ATOM      3  H   HOH    0       85.758 129.227 110.408  0.00  0.00    +0.205 HD
ENDROOT
TORSDOF 0
REMARK  Name = LVA.pdb
REMARK                            x       y       z     vdW  Elec       q    Type
REMARK                         _______ _______ _______ _____ _____    ______ ____
ROOT
ATOM      1  O   HOH    1       80.841 127.668 105.566  0.00  0.00    -0.410 OA
ATOM      2  H   HOH    0       80.518 128.530 105.871  0.00  0.00    +0.205 HD
ATOM      3  H   HOH    0       81.811 127.668 105.566  0.00  0.00    +0.205 HD
ENDROOT
TORSDOF 0
REMARK  Name = LVA.pdb
REMARK                            x       y       z     vdW  Elec       q    Type
REMARK                         _______ _______ _______ _____ _____    ______ ____
ROOT
ATOM      1  C   LIG    1       79.054 124.995 108.378  0.00  0.00    +0.000 C 
ATOM      2  C   LIG    1       79.875 124.940 109.429  0.00  0.00    +0.000 C 
ENDROOT
TORSDOF 0
REMARK  Name = LVA.pdb
REMARK                            x       y       z     vdW  Elec       q    Type
REMARK                         _______ _______ _______ _____ _____    ______ ____
ROOT
ATOM      1  C   LIG    1       78.856 126.160 107.545  0.00  0.00    -0.000 C 
ENDROOT
TORSDOF 0
REMARK  Name = LVA.pdb
REMARK                            x       y       z     vdW  Elec       q    Type
REMARK                         _______ _______ _______ _____ _____    ______ ____
ROOT
ATOM      1  C   LIG    1       84.257 128.194 109.522  0.00  0.00    -0.000 C 
ENDROOT
TORSDOF 0
REMARK  Name = LVA.pdb
REMARK                            x       y       z     vdW  Elec       q    Type
REMARK                         _______ _______ _______ _____ _____    ______ ____
ROOT
ATOM      1  C   LIG    1       86.967 124.566 108.590  0.00  0.00    -0.000 C 
ENDROOT
TORSDOF 0
REMARK  Name = LVA.pdb
REMARK                            x       y       z     vdW  Elec       q    Type
REMARK                         _______ _______ _______ _____ _____    ______ ____
ROOT
ATOM      1  C   LIG    1       80.677 126.143 109.812  0.00  0.00    -0.000 C 
ENDROOT
TORSDOF 0
REMARK  Name = LVA.pdb
REMARK                            x       y       z     vdW  Elec       q    Type
REMARK                         _______ _______ _______ _____ _____    ______ ____
ROOT
ATOM      1  C   LIG    1       80.962 127.009 108.579  0.00  0.00    -0.000 C 
ENDROOT
TORSDOF 0
REMARK  Name = LVA.pdb
REMARK                            x       y       z     vdW  Elec       q    Type
REMARK                         _______ _______ _______ _____ _____    ______ ____
ROOT
ATOM      1  C   LIG    1       85.938 126.854 108.348  0.00  0.00    -0.000 C 
ENDROOT
TORSDOF 0
REMARK  Name = LVA.pdb
REMARK                            x       y       z     vdW  Elec       q    Type
REMARK                         _______ _______ _______ _____ _____    ______ ____
ROOT
ATOM      1  C   LIG    1       79.964 128.209 106.624  0.00  0.00    +0.152 C 
ATOM      2  C   LIG    1       78.612 128.587 106.018  0.00  0.00    +0.034 C 
ENDROOT
BRANCH   1   3
ATOM      3  O   LIG    1       80.841 127.668 105.566  0.00  0.00    -0.395 OA
ATOM      4  H   LIG    1       80.970 128.340 104.878  0.00  0.00    +0.209 HD
ENDBRANCH   1   3
TORSDOF 1
REMARK  Name = LVA.pdb
REMARK                            x       y       z     vdW  Elec       q    Type
REMARK                         _______ _______ _______ _____ _____    ______ ____
ROOT
ATOM      1  C   LIG    1       82.827 127.987 109.966  0.00  0.00    -0.000 C 
ENDROOT
TORSDOF 0
REMARK  Name = LVA.pdb
REMARK                            x       y       z     vdW  Elec       q    Type
REMARK                         _______ _______ _______ _____ _____    ______ ____
ROOT
ATOM      1  C   LIG    1       85.118 126.936 109.609  0.00  0.00    -0.000 C 
ENDROOT
TORSDOF 0
REMARK  Name = LVA.pdb
REMARK                            x       y       z     vdW  Elec       q    Type
REMARK                         _______ _______ _______ _____ _____    ______ ____
ROOT
ATOM      1  C   LIG    1       81.826 128.257 108.857  0.00  0.00    -0.000 C 
ENDROOT
TORSDOF 0
REMARK  Name = LVA.pdb
REMARK                            x       y       z     vdW  Elec       q    Type
REMARK                         _______ _______ _______ _____ _____    ______ ____
ROOT
ATOM      1  C   LIG    1       79.918 126.866 110.908  0.00  0.00    -0.000 C 
ENDROOT
TORSDOF 0
REMARK  Name = LVA.pdb
REMARK                            x       y       z     vdW  Elec       q    Type
REMARK                         _______ _______ _______ _____ _____    ______ ____
ROOT
ATOM      1  C   LIG    1       87.077 125.953 108.412  0.00  0.00    -0.000 C 
ENDROOT
TORSDOF 0
REMARK  Name = LVA.pdb
REMARK                            x       y       z     vdW  Elec       q    Type
REMARK                         _______ _______ _______ _____ _____    ______ ____
ROOT
ATOM      1  C   LIG    1       78.144 126.939 104.114  0.00  0.00    -0.000 C 
ENDROOT
TORSDOF 0
REMARK  Name = LVA.pdb
REMARK                            x       y       z     vdW  Elec       q    Type
REMARK                         _______ _______ _______ _____ _____    ______ ____
ROOT
ATOM      1  C   LIG    1       81.879 128.353 105.045  0.00  0.00    +0.305 C 
ATOM      2  O   LIG    1       82.059 129.532 105.295  0.00  0.00    -0.305 OA
ENDROOT
TORSDOF 0
REMARK  Name = LVA.pdb
REMARK                            x       y       z     vdW  Elec       q    Type
REMARK                         _______ _______ _______ _____ _____    ______ ____
ROOT
ATOM      1  C   LIG    1       82.754 127.503 104.174  0.00  0.00    -0.000 C 
ENDROOT
TORSDOF 0
REMARK  Name = LVA.pdb
REMARK                            x       y       z     vdW  Elec       q    Type
REMARK                         _______ _______ _______ _____ _____    ______ ____
ROOT
ATOM      1  O   HOH    1       82.059 129.532 105.295  0.00  0.00    -0.410 OA
ATOM      2  H   HOH    0       81.736 128.621 105.372  0.00  0.00    +0.205 HD
ATOM      3  H   HOH    0       83.029 129.532 105.295  0.00  0.00    +0.205 HD
ENDROOT
TORSDOF 0
REMARK  Name = LVA.pdb
REMARK                            x       y       z     vdW  Elec       q    Type
REMARK                         _______ _______ _______ _____ _____    ______ ____
ROOT
ATOM      1  C   LIG    1       82.364 127.528 102.717  0.00  0.00    -0.000 C 
ENDROOT
TORSDOF 0
REMARK  Name = LVA.pdb
REMARK                            x       y       z     vdW  Elec       q    Type
REMARK                         _______ _______ _______ _____ _____    ______ ____
ROOT
ATOM      1  C   LIG    1       82.665 126.087 104.739  0.00  0.00    -0.000 C 
ENDROOT
TORSDOF 0
REMARK  Name = LVA.pdb
REMARK                            x       y       z     vdW  Elec       q    Type
REMARK                         _______ _______ _______ _____ _____    ______ ____
ROOT
ATOM      1  O   HOH    1       86.909 124.095 109.838  0.00  0.00    -0.410 OA
ATOM      2  H   HOH    0       86.586 124.670 109.127  0.00  0.00    +0.205 HD
ATOM      3  H   HOH    0       87.879 124.095 109.838  0.00  0.00    +0.205 HD
ENDROOT
TORSDOF 0
REMARK  Name = LVA.pdb
REMARK                            x       y       z     vdW  Elec       q    Type
REMARK                         _______ _______ _______ _____ _____    ______ ____
ROOT
ATOM      1  O   LIG    1       86.507 128.170 108.114  0.00  0.00    -0.398 OA
ATOM      2  H   LIG    1       87.431 128.180 108.410  0.00  0.00    +0.209 HD
ATOM      3  C   LIG    1       85.938 126.854 108.348  0.00  0.00    +0.189 C 
ENDROOT
TORSDOF 0
REMARK  Name = LVA.pdb
REMARK                            x       y       z     vdW  Elec       q    Type
REMARK                         _______ _______ _______ _____ _____    ______ ____
ROOT
ATOM      1  O   HOH    1       84.788 129.227 110.408  0.00  0.00    -0.410 OA
ATOM      2  H   HOH    0       84.465 128.633 109.712  0.00  0.00    +0.205 HD
ATOM      3  H   HOH    0       85.758 129.227 110.408  0.00  0.00    +0.205 HD
ENDROOT
TORSDOF 0
REMARK  Name = LVA.pdb
REMARK                            x       y       z     vdW  Elec       q    Type
REMARK                         _______ _______ _______ _____ _____    ______ ____
ROOT
ATOM      1  C   LIG    1       79.054 124.995 108.378  0.00  0.00    -0.000 C 
ENDROOT
TORSDOF 0
REMARK  Name = LVA.pdb
REMARK                            x       y       z     vdW  Elec       q    Type
REMARK                         _______ _______ _______ _____ _____    ______ ____
ROOT
ATOM      1  C   LIG    1       79.632 127.431 107.958  0.00  0.00    +0.004 C 
ATOM      2  C   LIG    1       80.962 127.009 108.579  0.00  0.00    -0.004 C 
ENDROOT
BRANCH   2   3
ATOM      3  C   LIG    1       81.826 128.257 108.857  0.00  0.00    -0.004 C 
ATOM      4  C   LIG    1       82.827 127.987 109.966  0.00  0.00    +0.004 C 
ENDBRANCH   2   3
TORSDOF 1
REMARK  Name = LVA.pdb
REMARK                            x       y       z     vdW  Elec       q    Type
REMARK                         _______ _______ _______ _____ _____    ______ ____
ROOT
ATOM      1  C   LIG    1       85.118 126.936 109.609  0.00  0.00    -0.000 C 
ENDROOT
TORSDOF 0
REMARK  Name = LVA.pdb
REMARK                            x       y       z     vdW  Elec       q    Type
REMARK                         _______ _______ _______ _____ _____    ______ ____
ROOT
ATOM      1  C   LIG    1       79.918 126.866 110.908  0.00  0.00    -0.000 C 
ENDROOT
TORSDOF 0
REMARK  Name = LVA.pdb
REMARK                            x       y       z     vdW  Elec       q    Type
REMARK                         _______ _______ _______ _____ _____    ______ ____
ROOT
ATOM      1  C   LIG    1       87.077 125.953 108.412  0.00  0.00    -0.000 C 
ENDROOT
TORSDOF 0
REMARK  Name = LVA.pdb
REMARK                            x       y       z     vdW  Elec       q    Type
REMARK                         _______ _______ _______ _____ _____    ______ ____
ROOT
ATOM      1  C   LIG    1       77.823 127.339 105.609  0.00  0.00    +0.000 C 
ATOM      2  C   LIG    1       78.144 126.939 104.114  0.00  0.00    +0.000 C 
ENDROOT
TORSDOF 0
REMARK  Name = LVA.pdb
REMARK                            x       y       z     vdW  Elec       q    Type
REMARK                         _______ _______ _______ _____ _____    ______ ____
ROOT
ATOM      1  C   LIG    1       81.879 128.353 105.045  0.00  0.00    -0.000 C 
ENDROOT
TORSDOF 0
REMARK  Name = LVA.pdb
REMARK                            x       y       z     vdW  Elec       q    Type
REMARK                         _______ _______ _______ _____ _____    ______ ____
ROOT
ATOM      1  C   LIG    1       82.754 127.503 104.174  0.00  0.00    -0.004 C 
ATOM      2  C   LIG    1       82.665 126.087 104.739  0.00  0.00    +0.004 C 
ENDROOT
BRANCH   1   3
ATOM      3  C   LIG    1       82.364 127.528 102.717  0.00  0.00    -0.004 C 
ATOM      4  C   LIG    1       83.114 126.580 101.841  0.00  0.00    +0.004 C 
ENDBRANCH   1   3
TORSDOF 1
